
     RDKit          3D

103108  0  0  0  0  0  0  0  0999 V2000
    7.6916    1.6824   -0.0979 C   0  0  0  0  0  0  0  0  0  0  0  0
    8.3357    0.5525    0.6925 N   0  0  0  0  0  0  0  0  0  0  0  0
    7.3255   -0.0645    1.6511 C   0  0  0  0  0  0  0  0  0  0  0  0
    9.0792   -0.4335   -0.1774 C   0  0  0  0  0  0  0  0  0  0  0  0
    6.4090    1.2203   -0.8237 C   0  0  0  0  0  0  0  0  0  0  0  0
    5.4692    0.5676    0.1217 N   0  0  0  0  0  0  0  0  0  0  0  0
    4.1721    0.3949   -0.3908 C   0  0  0  0  0  0  0  0  0  0  0  0
    6.0546   -0.5353    0.9138 C   0  0  0  0  0  0  0  0  0  0  0  0
    3.5329   -0.8508   -0.4802 C   0  0  0  0  0  0  0  0  0  0  0  0
    3.4354    1.5139   -0.8127 C   0  0  0  0  0  0  0  0  0  0  0  0
    2.2348   -0.9830   -1.0039 C   0  0  0  0  0  0  0  0  0  0  0  0
    2.1403    1.3942   -1.3343 C   0  0  0  0  0  0  0  0  0  0  0  0
    1.5318    0.1411   -1.4462 C   0  0  0  0  0  0  0  0  0  0  0  0
    0.1709    0.0799   -2.0563 C   0  0  0  0  0  0  0  0  0  0  0  0
   -0.2292   -1.1675   -2.5439 N   0  0  0  0  0  0  0  0  0  0  0  0
   -0.5378    1.0723   -2.1078 O   0  0  0  0  0  0  0  0  0  0  0  0
   -1.5958   -1.4252   -3.4563 S   0  0  0  0  0  0  0  0  0  0  0  0
   -2.9322   -0.9848   -2.3791 C   0  0  0  0  0  0  0  0  0  0  0  0
   -1.5780   -0.5284   -4.5883 O   0  0  0  0  0  0  0  0  0  0  0  0
   -1.6675   -2.8594   -3.6373 O   0  0  0  0  0  0  0  0  0  0  0  0
   -3.7532    0.0963   -2.6909 C   0  0  0  0  0  0  0  0  0  0  0  0
   -3.1833   -1.7543   -1.2467 C   0  0  0  0  0  0  0  0  0  0  0  0
   -4.8536    0.3978   -1.8771 C   0  0  0  0  0  0  0  0  0  0  0  0
   -4.2827   -1.4317   -0.4294 C   0  0  0  0  0  0  0  0  0  0  0  0
   -5.1839   -0.3816   -0.7540 C   0  0  0  0  0  0  0  0  0  0  0  0
   -4.4591   -2.2354    0.7879 N   0  0  0  0  0  0  0  0  0  0  0  0
   -6.2745   -0.0445    0.0706 N   0  0  0  0  0  0  0  0  0  0  0  0
   -5.6033   -2.3460    1.2558 O   0  0  0  0  0  0  0  0  0  0  0  0
   -3.4448   -2.7507    1.2811 O   0  0  0  0  0  0  0  0  0  0  0  0
   -7.4886    0.6019   -0.4666 C   0  0  2  0  0  0  0  0  0  0  0  0
   -8.3258    1.0571    0.7551 C   0  0  0  0  0  0  0  0  0  0  0  0
   -8.2499   -0.3160   -1.4567 C   0  0  0  0  0  0  0  0  0  0  0  0
   -9.4861    1.9704    0.3698 C   0  0  0  0  0  0  0  0  0  0  0  0
   -8.6829   -1.9651   -0.7821 S   0  0  0  0  0  0  0  0  0  0  0  0
  -10.2720    2.4705    1.5665 N   0  0  0  0  0  0  0  0  0  0  0  0
  -10.3883   -1.7611   -0.3129 C   0  0  0  0  0  0  0  0  0  0  0  0
  -11.0959    1.4062    2.2393 C   0  0  0  0  0  0  0  0  0  0  0  0
   -9.4701    3.2726    2.5533 C   0  0  0  0  0  0  0  0  0  0  0  0
  -11.3562   -1.2868   -1.2036 C   0  0  0  0  0  0  0  0  0  0  0  0
  -10.7826   -2.1719    0.9658 C   0  0  0  0  0  0  0  0  0  0  0  0
  -12.6934   -1.1919   -0.8090 C   0  0  0  0  0  0  0  0  0  0  0  0
  -12.1204   -2.0840    1.3583 C   0  0  0  0  0  0  0  0  0  0  0  0
  -13.0745   -1.5884    0.4719 C   0  0  0  0  0  0  0  0  0  0  0  0
    9.9167   -1.4338    0.5846 C   0  0  0  0  0  0  0  0  0  0  0  0
    9.5411   -2.7917    0.5393 C   0  0  0  0  0  0  0  0  0  0  0  0
   11.0545   -1.0564    1.3410 C   0  0  0  0  0  0  0  0  0  0  0  0
   10.2649   -3.7589    1.2348 C   0  0  0  0  0  0  0  0  0  0  0  0
   11.7660   -2.0521    2.0349 C   0  0  0  0  0  0  0  0  0  0  0  0
   11.5192    0.3352    1.4374 C   0  0  0  0  0  0  0  0  0  0  0  0
   11.3750   -3.3893    1.9835 C   0  0  0  0  0  0  0  0  0  0  0  0
   11.3547    1.0602    2.6305 C   0  0  0  0  0  0  0  0  0  0  0  0
   12.1362    0.9692    0.3472 C   0  0  0  0  0  0  0  0  0  0  0  0
   11.7620    2.3942    2.7178 C   0  0  0  0  0  0  0  0  0  0  0  0
   12.5442    2.3034    0.4340 C   0  0  0  0  0  0  0  0  0  0  0  0
   12.3494    3.0122    1.6167 C   0  0  0  0  0  0  0  0  0  0  0  0
   12.8310    4.6579    1.7167 Cl  0  0  0  0  0  0  0  0  0  0  0  0
    7.4581    2.4660    0.6321 H   0  0  0  0  0  0  0  0  0  0  0  0
    8.4382    2.0703   -0.7982 H   0  0  0  0  0  0  0  0  0  0  0  0
    9.0515    0.9965    1.2792 H   0  0  0  0  0  0  0  0  0  0  0  0
    7.8113   -0.8819    2.1909 H   0  0  0  0  0  0  0  0  0  0  0  0
    7.0791    0.7229    2.3729 H   0  0  0  0  0  0  0  0  0  0  0  0
    9.7179    0.1432   -0.8552 H   0  0  0  0  0  0  0  0  0  0  0  0
    8.3364   -0.9400   -0.8031 H   0  0  0  0  0  0  0  0  0  0  0  0
    6.6640    0.5188   -1.6277 H   0  0  0  0  0  0  0  0  0  0  0  0
    5.9683    2.1059   -1.2940 H   0  0  0  0  0  0  0  0  0  0  0  0
    5.3406   -0.8775    1.6730 H   0  0  0  0  0  0  0  0  0  0  0  0
    6.2970   -1.3846    0.2641 H   0  0  0  0  0  0  0  0  0  0  0  0
    4.0279   -1.7633   -0.1592 H   0  0  0  0  0  0  0  0  0  0  0  0
    3.8500    2.5153   -0.7169 H   0  0  0  0  0  0  0  0  0  0  0  0
    1.7991   -1.9772   -1.0277 H   0  0  0  0  0  0  0  0  0  0  0  0
    1.6132    2.2927   -1.6544 H   0  0  0  0  0  0  0  0  0  0  0  0
    0.3527   -1.9954   -2.5110 H   0  0  0  0  0  0  0  0  0  0  0  0
   -3.5445    0.7160   -3.5626 H   0  0  0  0  0  0  0  0  0  0  0  0
   -2.5363   -2.5970   -1.0093 H   0  0  0  0  0  0  0  0  0  0  0  0
   -5.4400    1.2693   -2.1530 H   0  0  0  0  0  0  0  0  0  0  0  0
   -6.5311   -0.8627    0.6470 H   0  0  0  0  0  0  0  0  0  0  0  0
   -7.2056    1.5174   -0.9992 H   0  0  0  0  0  0  0  0  0  0  0  0
   -7.6547    1.5977    1.4346 H   0  0  0  0  0  0  0  0  0  0  0  0
   -8.6813    0.1885    1.3185 H   0  0  0  0  0  0  0  0  0  0  0  0
   -9.1316    0.1957   -1.8505 H   0  0  0  0  0  0  0  0  0  0  0  0
   -7.6113   -0.5129   -2.3248 H   0  0  0  0  0  0  0  0  0  0  0  0
  -10.2076    1.4712   -0.2829 H   0  0  0  0  0  0  0  0  0  0  0  0
   -9.1230    2.8640   -0.1503 H   0  0  0  0  0  0  0  0  0  0  0  0
  -10.9605    3.1298    1.1781 H   0  0  0  0  0  0  0  0  0  0  0  0
  -11.7189    1.8917    2.9955 H   0  0  0  0  0  0  0  0  0  0  0  0
  -10.4286    0.6763    2.7020 H   0  0  0  0  0  0  0  0  0  0  0  0
  -11.7315    0.9487    1.4800 H   0  0  0  0  0  0  0  0  0  0  0  0
   -8.8170    2.5990    3.1132 H   0  0  0  0  0  0  0  0  0  0  0  0
  -10.1720    3.7714    3.2271 H   0  0  0  0  0  0  0  0  0  0  0  0
   -8.8931    4.0172    1.9992 H   0  0  0  0  0  0  0  0  0  0  0  0
  -11.0962   -1.0359   -2.2295 H   0  0  0  0  0  0  0  0  0  0  0  0
  -10.0570   -2.6005    1.6557 H   0  0  0  0  0  0  0  0  0  0  0  0
  -13.4469   -0.8518   -1.5170 H   0  0  0  0  0  0  0  0  0  0  0  0
  -12.4233   -2.4391    2.3413 H   0  0  0  0  0  0  0  0  0  0  0  0
  -14.1225   -1.5520    0.7636 H   0  0  0  0  0  0  0  0  0  0  0  0
    8.6844   -3.1207   -0.0472 H   0  0  0  0  0  0  0  0  0  0  0  0
    9.9716   -4.8063    1.1868 H   0  0  0  0  0  0  0  0  0  0  0  0
   12.6501   -1.7908    2.6177 H   0  0  0  0  0  0  0  0  0  0  0  0
   11.9471   -4.1438    2.5207 H   0  0  0  0  0  0  0  0  0  0  0  0
   10.9229    0.5847    3.5108 H   0  0  0  0  0  0  0  0  0  0  0  0
   12.3293    0.4209   -0.5744 H   0  0  0  0  0  0  0  0  0  0  0  0
   11.6380    2.9403    3.6509 H   0  0  0  0  0  0  0  0  0  0  0  0
   13.0313    2.7778   -0.4157 H   0  0  0  0  0  0  0  0  0  0  0  0
  1  2  1  0
  2  3  1  0
  2  4  1  0
  5  1  1  0
  6  5  1  0
  7  6  1  0
  8  6  1  0
  9  7  1  0
  7 10  2  0
  3  8  1  0
 11  9  2  0
 10 12  1  0
 13 11  1  0
 12 13  2  0
 14 13  1  0
 15 14  1  0
 14 16  2  0
 17 15  1  0
 18 17  1  0
 17 19  2  0
 17 20  2  0
 21 18  1  0
 18 22  2  0
 23 21  2  0
 22 24  1  0
 25 23  1  0
 24 25  2  0
 24 26  1  0
 27 25  1  0
 26 28  2  0
 26 29  1  0
 30 27  1  0
 31 30  1  0
 30 32  1  0
 33 31  1  0
 32 34  1  0
 35 33  1  0
 34 36  1  0
 37 35  1  0
 35 38  1  0
 36 39  2  0
 40 36  1  0
 39 41  1  0
 42 40  2  0
 41 43  2  0
 43 42  1  0
  4 44  1  0
 44 45  2  0
 46 44  1  0
 45 47  1  0
 48 46  2  0
 46 49  1  0
 47 50  2  0
 50 48  1  0
 49 51  1  0
 52 49  2  0
 51 53  2  0
 54 52  1  0
 53 55  1  0
 55 54  2  0
 55 56  1  0
  1 57  1  0
  1 58  1  0
  2 59  1  0
  3 60  1  0
  3 61  1  0
  4 62  1  0
  4 63  1  0
  5 64  1  0
  5 65  1  0
  8 66  1  0
  8 67  1  0
  9 68  1  0
 10 69  1  0
 11 70  1  0
 12 71  1  0
 15 72  1  0
 21 73  1  0
 22 74  1  0
 23 75  1  0
 27 76  1  0
 30 77  1  6
 31 78  1  0
 31 79  1  0
 32 80  1  0
 32 81  1  0
 33 82  1  0
 33 83  1  0
 35 84  1  0
 37 85  1  0
 37 86  1  0
 37 87  1  0
 38 88  1  0
 38 89  1  0
 38 90  1  0
 39 91  1  0
 40 92  1  0
 41 93  1  0
 42 94  1  0
 43 95  1  0
 45 96  1  0
 47 97  1  0
 48 98  1  0
 50 99  1  0
 51100  1  0
 52101  1  0
 53102  1  0
 54103  1  0
M  CHG  4   2   1  26   1  29  -1  35   1
M  END
>  <pka_props_0>  (1) 
{'name': 'amine3', 'atom': 1, 'pKa': 10.0}

>  <pka_props_1>  (1) 
{'name': 'amine3', 'atom': 34, 'pKa': 10.0}

>  <pka_props_2>  (1) 
{'name': 'aniline', 'atom': 5, 'pKa': 4.6}

>  <pka_props_3>  (1) 
{'name': 'aniline', 'atom': 26, 'pKa': 4.6}

>  <ScrubInfo>  (1) 
{"isomerGroup": 0, "isomerId": 0, "confId": 0, "nr_conformers:": 1, "nr_isomers:": 1}

$$$$
