
     RDKit          3D

103108  0  0  0  0  0  0  0  0999 V2000
   -7.3066    0.9927    2.4762 C   0  0  0  0  0  0  0  0  0  0  0  0
   -7.9067    0.9844    1.0762 N   0  0  0  0  0  0  0  0  0  0  0  0
   -7.5349   -0.2957    0.3389 C   0  0  0  0  0  0  0  0  0  0  0  0
   -9.3914    1.2502    1.1011 C   0  0  0  0  0  0  0  0  0  0  0  0
   -5.7747    0.8245    2.4057 C   0  0  0  0  0  0  0  0  0  0  0  0
   -5.4211   -0.3965    1.6533 N   0  0  0  0  0  0  0  0  0  0  0  0
   -4.1031   -0.8697    1.7538 C   0  0  0  0  0  0  0  0  0  0  0  0
   -6.0005   -0.4712    0.2920 C   0  0  0  0  0  0  0  0  0  0  0  0
   -3.8148   -2.2025    1.4108 C   0  0  0  0  0  0  0  0  0  0  0  0
   -3.0392   -0.0980    2.2427 C   0  0  0  0  0  0  0  0  0  0  0  0
   -2.5276   -2.7448    1.5438 C   0  0  0  0  0  0  0  0  0  0  0  0
   -1.7482   -0.6298    2.3807 C   0  0  0  0  0  0  0  0  0  0  0  0
   -1.4827   -1.9571    2.0321 C   0  0  0  0  0  0  0  0  0  0  0  0
   -0.1053   -2.4857    2.2435 C   0  0  0  0  0  0  0  0  0  0  0  0
    0.2279   -3.6222    1.5016 N   0  0  0  0  0  0  0  0  0  0  0  0
    0.6695   -1.9315    3.0060 O   0  0  0  0  0  0  0  0  0  0  0  0
    1.5323   -4.6087    1.7908 S   0  0  0  0  0  0  0  0  0  0  0  0
    2.9546   -3.5558    1.6622 C   0  0  0  0  0  0  0  0  0  0  0  0
    1.4431   -5.1077    3.1429 O   0  0  0  0  0  0  0  0  0  0  0  0
    1.5705   -5.5168    0.6632 O   0  0  0  0  0  0  0  0  0  0  0  0
    3.5835   -3.3807    0.4302 C   0  0  0  0  0  0  0  0  0  0  0  0
    3.5113   -3.0066    2.8148 C   0  0  0  0  0  0  0  0  0  0  0  0
    4.7646   -2.6274    0.3441 C   0  0  0  0  0  0  0  0  0  0  0  0
    4.6854   -2.2425    2.7110 C   0  0  0  0  0  0  0  0  0  0  0  0
    5.3382   -2.0112    1.4688 C   0  0  0  0  0  0  0  0  0  0  0  0
    5.2247   -1.6738    3.9517 N   0  0  0  0  0  0  0  0  0  0  0  0
    6.5712   -1.3475    1.4005 N   0  0  0  0  0  0  0  0  0  0  0  0
    5.0378   -2.2989    5.0035 O   0  0  0  0  0  0  0  0  0  0  0  0
    5.8452   -0.5989    3.8683 O   0  0  0  0  0  0  0  0  0  0  0  0
    7.1532   -0.7963    0.1682 C   0  0  2  0  0  0  0  0  0  0  0  0
    8.6663   -0.6236    0.4602 C   0  0  0  0  0  0  0  0  0  0  0  0
    6.4806    0.5496   -0.2030 C   0  0  0  0  0  0  0  0  0  0  0  0
    9.4808   -0.3381   -0.7988 C   0  0  0  0  0  0  0  0  0  0  0  0
    5.4324    0.4286   -1.7015 S   0  0  0  0  0  0  0  0  0  0  0  0
   10.9695   -0.4529   -0.5226 N   0  0  0  0  0  0  0  0  0  0  0  0
    6.6941    0.3986   -2.9582 C   0  0  0  0  0  0  0  0  0  0  0  0
   11.5067    0.6153    0.3928 C   0  0  0  0  0  0  0  0  0  0  0  0
   11.7550   -0.5003   -1.8102 C   0  0  0  0  0  0  0  0  0  0  0  0
    7.4020    1.5594   -3.2860 C   0  0  0  0  0  0  0  0  0  0  0  0
    6.9713   -0.7911   -3.6384 C   0  0  0  0  0  0  0  0  0  0  0  0
    8.3984    1.5233   -4.2643 C   0  0  0  0  0  0  0  0  0  0  0  0
    7.9686   -0.8266   -4.6157 C   0  0  0  0  0  0  0  0  0  0  0  0
    8.6844    0.3291   -4.9244 C   0  0  0  0  0  0  0  0  0  0  0  0
  -10.0088    1.5008   -0.2556 C   0  0  0  0  0  0  0  0  0  0  0  0
  -10.9849    0.5952   -0.7183 C   0  0  0  0  0  0  0  0  0  0  0  0
   -9.6524    2.6067   -1.0687 C   0  0  0  0  0  0  0  0  0  0  0  0
  -11.5936    0.7688   -1.9600 C   0  0  0  0  0  0  0  0  0  0  0  0
  -10.2811    2.7578   -2.3184 C   0  0  0  0  0  0  0  0  0  0  0  0
   -8.6389    3.5946   -0.6686 C   0  0  0  0  0  0  0  0  0  0  0  0
  -11.2412    1.8482   -2.7602 C   0  0  0  0  0  0  0  0  0  0  0  0
   -8.8864    4.5125    0.3644 C   0  0  0  0  0  0  0  0  0  0  0  0
   -7.3884    3.6284   -1.3111 C   0  0  0  0  0  0  0  0  0  0  0  0
   -7.8976    5.4130    0.7716 C   0  0  0  0  0  0  0  0  0  0  0  0
   -6.3997    4.5281   -0.9047 C   0  0  0  0  0  0  0  0  0  0  0  0
   -6.6563    5.4118    0.1403 C   0  0  0  0  0  0  0  0  0  0  0  0
   -5.4308    6.4984    0.6585 Cl  0  0  0  0  0  0  0  0  0  0  0  0
   -7.7746    0.1725    3.0321 H   0  0  0  0  0  0  0  0  0  0  0  0
   -7.5646    1.9511    2.9380 H   0  0  0  0  0  0  0  0  0  0  0  0
   -7.4735    1.7628    0.5683 H   0  0  0  0  0  0  0  0  0  0  0  0
   -7.9333   -0.2278   -0.6774 H   0  0  0  0  0  0  0  0  0  0  0  0
   -8.0127   -1.1248    0.8726 H   0  0  0  0  0  0  0  0  0  0  0  0
   -9.5622    2.1191    1.7462 H   0  0  0  0  0  0  0  0  0  0  0  0
   -9.8534    0.3881    1.5977 H   0  0  0  0  0  0  0  0  0  0  0  0
   -5.3357    1.7064    1.9221 H   0  0  0  0  0  0  0  0  0  0  0  0
   -5.3999    0.7676    3.4348 H   0  0  0  0  0  0  0  0  0  0  0  0
   -5.7939   -1.4311   -0.1934 H   0  0  0  0  0  0  0  0  0  0  0  0
   -5.5602    0.3164   -0.3334 H   0  0  0  0  0  0  0  0  0  0  0  0
   -4.6126   -2.8669    1.0836 H   0  0  0  0  0  0  0  0  0  0  0  0
   -3.1763    0.9397    2.5341 H   0  0  0  0  0  0  0  0  0  0  0  0
   -2.3892   -3.7986    1.3164 H   0  0  0  0  0  0  0  0  0  0  0  0
   -0.9545    0.0010    2.7808 H   0  0  0  0  0  0  0  0  0  0  0  0
   -0.3047   -3.9198    0.6920 H   0  0  0  0  0  0  0  0  0  0  0  0
    3.1845   -3.8503   -0.4680 H   0  0  0  0  0  0  0  0  0  0  0  0
    3.0334   -3.1692    3.7811 H   0  0  0  0  0  0  0  0  0  0  0  0
    5.2280   -2.5601   -0.6354 H   0  0  0  0  0  0  0  0  0  0  0  0
    6.6890   -0.7196    2.2088 H   0  0  0  0  0  0  0  0  0  0  0  0
    7.0820   -1.5325   -0.6388 H   0  0  0  0  0  0  0  0  0  0  0  0
    8.8048    0.1751    1.1993 H   0  0  0  0  0  0  0  0  0  0  0  0
    9.0442   -1.5450    0.9247 H   0  0  0  0  0  0  0  0  0  0  0  0
    7.2157    1.3449   -0.3597 H   0  0  0  0  0  0  0  0  0  0  0  0
    5.8261    0.8926    0.6065 H   0  0  0  0  0  0  0  0  0  0  0  0
    9.2533   -1.0815   -1.5694 H   0  0  0  0  0  0  0  0  0  0  0  0
    9.3044    0.6669   -1.1915 H   0  0  0  0  0  0  0  0  0  0  0  0
   11.1318   -1.3567   -0.0560 H   0  0  0  0  0  0  0  0  0  0  0  0
   11.0243    0.5128    1.3666 H   0  0  0  0  0  0  0  0  0  0  0  0
   11.2983    1.5921   -0.0514 H   0  0  0  0  0  0  0  0  0  0  0  0
   12.5832    0.4580    0.5036 H   0  0  0  0  0  0  0  0  0  0  0  0
   11.3895   -1.3449   -2.4004 H   0  0  0  0  0  0  0  0  0  0  0  0
   11.6079    0.4441   -2.3411 H   0  0  0  0  0  0  0  0  0  0  0  0
   12.8080   -0.6528   -1.5598 H   0  0  0  0  0  0  0  0  0  0  0  0
    7.1642    2.5070   -2.8061 H   0  0  0  0  0  0  0  0  0  0  0  0
    6.4002   -1.6942   -3.4318 H   0  0  0  0  0  0  0  0  0  0  0  0
    8.9254    2.4353   -4.5382 H   0  0  0  0  0  0  0  0  0  0  0  0
    8.1623   -1.7486   -5.1612 H   0  0  0  0  0  0  0  0  0  0  0  0
    9.4352    0.3090   -5.7124 H   0  0  0  0  0  0  0  0  0  0  0  0
  -11.2959   -0.2559   -0.1129 H   0  0  0  0  0  0  0  0  0  0  0  0
  -12.3534    0.0678   -2.3017 H   0  0  0  0  0  0  0  0  0  0  0  0
  -10.0338    3.6040   -2.9600 H   0  0  0  0  0  0  0  0  0  0  0  0
  -11.7225    1.9910   -3.7260 H   0  0  0  0  0  0  0  0  0  0  0  0
   -9.8624    4.5510    0.8472 H   0  0  0  0  0  0  0  0  0  0  0  0
   -7.1809    2.9609   -2.1472 H   0  0  0  0  0  0  0  0  0  0  0  0
   -8.1080    6.1256    1.5669 H   0  0  0  0  0  0  0  0  0  0  0  0
   -5.4406    4.5497   -1.4183 H   0  0  0  0  0  0  0  0  0  0  0  0
  1  2  1  0
  2  3  1  0
  2  4  1  0
  5  1  1  0
  6  5  1  0
  7  6  1  0
  8  6  1  0
  9  7  1  0
  7 10  2  0
  3  8  1  0
 11  9  2  0
 10 12  1  0
 13 11  1  0
 12 13  2  0
 14 13  1  0
 15 14  1  0
 14 16  2  0
 17 15  1  0
 18 17  1  0
 17 19  2  0
 17 20  2  0
 21 18  1  0
 18 22  2  0
 23 21  2  0
 22 24  1  0
 25 23  1  0
 24 25  2  0
 24 26  1  0
 27 25  1  0
 26 28  2  0
 26 29  1  0
 30 27  1  0
 31 30  1  0
 30 32  1  0
 33 31  1  0
 32 34  1  0
 35 33  1  0
 34 36  1  0
 37 35  1  0
 35 38  1  0
 36 39  2  0
 40 36  1  0
 39 41  1  0
 42 40  2  0
 41 43  2  0
 43 42  1  0
  4 44  1  0
 44 45  2  0
 46 44  1  0
 45 47  1  0
 48 46  2  0
 46 49  1  0
 47 50  2  0
 50 48  1  0
 49 51  1  0
 52 49  2  0
 51 53  2  0
 54 52  1  0
 53 55  1  0
 55 54  2  0
 55 56  1  0
  1 57  1  0
  1 58  1  0
  2 59  1  0
  3 60  1  0
  3 61  1  0
  4 62  1  0
  4 63  1  0
  5 64  1  0
  5 65  1  0
  8 66  1  0
  8 67  1  0
  9 68  1  0
 10 69  1  0
 11 70  1  0
 12 71  1  0
 15 72  1  0
 21 73  1  0
 22 74  1  0
 23 75  1  0
 27 76  1  0
 30 77  1  6
 31 78  1  0
 31 79  1  0
 32 80  1  0
 32 81  1  0
 33 82  1  0
 33 83  1  0
 35 84  1  0
 37 85  1  0
 37 86  1  0
 37 87  1  0
 38 88  1  0
 38 89  1  0
 38 90  1  0
 39 91  1  0
 40 92  1  0
 41 93  1  0
 42 94  1  0
 43 95  1  0
 45 96  1  0
 47 97  1  0
 48 98  1  0
 50 99  1  0
 51100  1  0
 52101  1  0
 53102  1  0
 54103  1  0
M  CHG  4   2   1  26   1  29  -1  35   1
M  END
>  <pka_props_0>  (1) 
{'name': 'amine3', 'atom': 1, 'pKa': 10.0}

>  <pka_props_1>  (1) 
{'name': 'amine3', 'atom': 34, 'pKa': 10.0}

>  <pka_props_2>  (1) 
{'name': 'aniline', 'atom': 5, 'pKa': 4.6}

>  <pka_props_3>  (1) 
{'name': 'aniline', 'atom': 26, 'pKa': 4.6}

>  <ScrubInfo>  (1) 
{"isomerGroup": 0, "isomerId": 0, "confId": 0, "nr_conformers:": 1, "nr_isomers:": 1}

$$$$
