
     RDKit          3D

 70 74  0  0  0  0  0  0  0  0999 V2000
   -7.3609    0.4492    2.1576 C   0  0  0  0  0  0  0  0  0  0  0  0
   -8.7091   -0.2375    1.9727 N   0  0  0  0  0  0  0  0  0  0  0  0
   -9.8099    0.6909    1.5112 C   0  0  0  0  0  0  0  0  0  0  0  0
   -8.6084   -1.5243    1.1609 C   0  0  0  0  0  0  0  0  0  0  0  0
   -6.6238    0.6636    0.8115 C   0  0  0  0  0  0  0  0  0  0  0  0
   -6.5150   -0.6387    0.0221 N   0  0  0  0  0  0  0  0  0  0  0  0
   -5.7663   -0.4214   -1.2954 C   0  0  0  0  0  0  0  0  0  0  0  0
   -7.8728   -1.3119   -0.1863 C   0  0  0  0  0  0  0  0  0  0  0  0
   -5.3716   -1.7109   -1.9629 C   0  0  0  0  0  0  0  0  0  0  0  0
   -5.9027   -2.0665   -3.2133 C   0  0  0  0  0  0  0  0  0  0  0  0
   -4.4461   -2.5709   -1.3555 C   0  0  0  0  0  0  0  0  0  0  0  0
   -5.5282   -3.2647   -3.8390 C   0  0  0  0  0  0  0  0  0  0  0  0
   -4.0852   -3.7701   -1.9746 C   0  0  0  0  0  0  0  0  0  0  0  0
   -4.6268   -4.1349   -3.2161 C   0  0  0  0  0  0  0  0  0  0  0  0
   -4.1596   -5.4189   -3.8272 C   0  0  0  0  0  0  0  0  0  0  0  0
   -4.9911   -5.9866   -4.7746 N   0  0  0  0  0  0  0  0  0  0  0  0
   -3.1036   -5.8801   -3.4105 O   0  0  0  0  0  0  0  0  0  0  0  0
   -4.7553   -7.1728   -5.5100 C   0  0  0  0  0  0  0  0  0  0  0  0
   -3.5700   -7.9087   -5.4526 C   0  0  0  0  0  0  0  0  0  0  0  0
   -5.7765   -7.6135   -6.3547 C   0  0  0  0  0  0  0  0  0  0  0  0
   -3.3939   -9.0890   -6.2038 C   0  0  0  0  0  0  0  0  0  0  0  0
   -5.6192   -8.7774   -7.1097 C   0  0  0  0  0  0  0  0  0  0  0  0
   -4.4392   -9.5329   -7.0331 C   0  0  0  0  0  0  0  0  0  0  0  0
   -2.1477   -9.7424   -6.1321 N   0  0  0  0  0  0  0  0  0  0  0  0
   -4.3434  -10.7886   -7.8572 C   0  0  0  0  0  0  0  0  0  0  0  0
   -1.1745   -9.7905   -7.1391 C   0  0  0  0  0  0  0  0  0  0  0  0
   -1.4907   -9.6253   -8.4295 N   0  0  0  0  0  0  0  0  0  0  0  0
    0.0810   -9.9870   -6.7062 N   0  0  0  0  0  0  0  0  0  0  0  0
   -0.4874   -9.6916   -9.3189 C   0  0  0  0  0  0  0  0  0  0  0  0
    1.0755  -10.0560   -7.6212 C   0  0  0  0  0  0  0  0  0  0  0  0
    0.8222   -9.9085   -8.9697 C   0  0  0  0  0  0  0  0  0  0  0  0
    2.4258  -10.2788   -7.0752 C   0  0  0  0  0  0  0  0  0  0  0  0
    2.7704   -9.8369   -5.7949 C   0  0  0  0  0  0  0  0  0  0  0  0
    3.4426  -10.9401   -7.7806 C   0  0  0  0  0  0  0  0  0  0  0  0
    3.9894   -9.9830   -5.2147 N   0  0  0  0  0  0  0  0  0  0  0  0
    4.7053  -11.1152   -7.2117 C   0  0  0  0  0  0  0  0  0  0  0  0
    4.9286  -10.6221   -5.9388 C   0  0  0  0  0  0  0  0  0  0  0  0
   -7.5354    1.3961    2.6778 H   0  0  0  0  0  0  0  0  0  0  0  0
   -6.7756   -0.2084    2.8098 H   0  0  0  0  0  0  0  0  0  0  0  0
   -9.0123   -0.5250    2.9200 H   0  0  0  0  0  0  0  0  0  0  0  0
   -9.8670    1.5214    2.2192 H   0  0  0  0  0  0  0  0  0  0  0  0
  -10.7470    0.1286    1.5163 H   0  0  0  0  0  0  0  0  0  0  0  0
   -9.5709    1.0467    0.5069 H   0  0  0  0  0  0  0  0  0  0  0  0
   -9.6230   -1.9062    1.0111 H   0  0  0  0  0  0  0  0  0  0  0  0
   -8.0547   -2.2322    1.7876 H   0  0  0  0  0  0  0  0  0  0  0  0
   -5.6043    1.0191    0.9915 H   0  0  0  0  0  0  0  0  0  0  0  0
   -7.1571    1.3799    0.1777 H   0  0  0  0  0  0  0  0  0  0  0  0
   -5.9151   -1.2894    0.5506 H   0  0  0  0  0  0  0  0  0  0  0  0
   -6.4134    0.1927   -1.9320 H   0  0  0  0  0  0  0  0  0  0  0  0
   -4.8639    0.1555   -1.0615 H   0  0  0  0  0  0  0  0  0  0  0  0
   -7.6965   -2.2793   -0.6648 H   0  0  0  0  0  0  0  0  0  0  0  0
   -8.4517   -0.6676   -0.8563 H   0  0  0  0  0  0  0  0  0  0  0  0
   -6.5885   -1.4059   -3.7440 H   0  0  0  0  0  0  0  0  0  0  0  0
   -3.9578   -2.3210   -0.4155 H   0  0  0  0  0  0  0  0  0  0  0  0
   -5.9157   -3.4741   -4.8337 H   0  0  0  0  0  0  0  0  0  0  0  0
   -3.3500   -4.4202   -1.4961 H   0  0  0  0  0  0  0  0  0  0  0  0
   -5.8941   -5.5686   -4.9374 H   0  0  0  0  0  0  0  0  0  0  0  0
   -2.7403   -7.5750   -4.8382 H   0  0  0  0  0  0  0  0  0  0  0  0
   -6.7108   -7.0674   -6.4446 H   0  0  0  0  0  0  0  0  0  0  0  0
   -6.4280   -9.1027   -7.7615 H   0  0  0  0  0  0  0  0  0  0  0  0
   -1.6348   -9.5809   -5.2738 H   0  0  0  0  0  0  0  0  0  0  0  0
   -4.0112  -10.5518   -8.8721 H   0  0  0  0  0  0  0  0  0  0  0  0
   -3.6597  -11.5175   -7.4116 H   0  0  0  0  0  0  0  0  0  0  0  0
   -5.3208  -11.2800   -7.9202 H   0  0  0  0  0  0  0  0  0  0  0  0
   -0.7782   -9.5574  -10.3567 H   0  0  0  0  0  0  0  0  0  0  0  0
    1.5970   -9.9383   -9.7233 H   0  0  0  0  0  0  0  0  0  0  0  0
    2.0448   -9.3205   -5.1699 H   0  0  0  0  0  0  0  0  0  0  0  0
    3.2642  -11.3467   -8.7728 H   0  0  0  0  0  0  0  0  0  0  0  0
    5.4939  -11.6310   -7.7490 H   0  0  0  0  0  0  0  0  0  0  0  0
    5.8941  -10.7351   -5.4540 H   0  0  0  0  0  0  0  0  0  0  0  0
  1  2  1  0
  2  3  1  0
  2  4  1  0
  5  1  1  0
  6  5  1  0
  7  6  1  0
  6  8  1  0
  9  7  1  0
  4  8  1  0
 10  9  1  0
  9 11  2  0
 12 10  2  0
 11 13  1  0
 14 12  1  0
 13 14  2  0
 15 14  1  0
 16 15  1  0
 15 17  2  0
 18 16  1  0
 19 18  2  0
 18 20  1  0
 21 19  1  0
 20 22  2  0
 23 21  2  0
 21 24  1  0
 22 23  1  0
 25 23  1  0
 24 26  1  0
 26 27  2  0
 28 26  1  0
 27 29  1  0
 30 28  2  0
 29 31  2  0
 31 30  1  0
 30 32  1  0
 32 33  2  0
 34 32  1  0
 33 35  1  0
 36 34  2  0
 35 37  2  0
 37 36  1  0
  1 38  1  0
  1 39  1  0
  2 40  1  0
  3 41  1  0
  3 42  1  0
  3 43  1  0
  4 44  1  0
  4 45  1  0
  5 46  1  0
  5 47  1  0
  6 48  1  0
  7 49  1  0
  7 50  1  0
  8 51  1  0
  8 52  1  0
 10 53  1  0
 11 54  1  0
 12 55  1  0
 13 56  1  0
 16 57  1  0
 19 58  1  0
 20 59  1  0
 22 60  1  0
 24 61  1  0
 25 62  1  0
 25 63  1  0
 25 64  1  0
 29 65  1  0
 31 66  1  0
 33 67  1  0
 34 68  1  0
 36 69  1  0
 37 70  1  0
M  CHG  2   2   1   6   1
M  END
>  <pka_props_0>  (1) 
{'name': 'pyridine', 'atom': 34, 'pKa': 5.25}

>  <pka_props_1>  (1) 
{'name': 'amine3', 'atom': 1, 'pKa': 10.0}

>  <pka_props_2>  (1) 
{'name': 'amine3', 'atom': 5, 'pKa': 10.0}

>  <pka_props_3>  (1) 
{'name': 'aniline', 'atom': 15, 'pKa': 4.6}

>  <pka_props_4>  (1) 
{'name': 'aniline', 'atom': 23, 'pKa': 4.6}

>  <ScrubInfo>  (1) 
{"isomerGroup": 0, "isomerId": 0, "confId": 0, "nr_conformers:": 1, "nr_isomers:": 1}

$$$$
