
     RDKit          3D

 70 74  0  0  0  0  0  0  0  0999 V2000
    8.4623    0.1695   -0.5782 C   0  0  0  0  0  0  0  0  0  0  0  0
    8.5831    0.5218    0.8974 N   0  0  0  0  0  0  0  0  0  0  0  0
    7.2645    0.3531    1.6373 C   0  0  0  0  0  0  0  0  0  0  0  0
    9.1214    1.9339    1.0725 C   0  0  0  0  0  0  0  0  0  0  0  0
    7.8989   -1.2598   -0.7831 C   0  0  0  0  0  0  0  0  0  0  0  0
    6.6190   -1.5372   -0.0027 N   0  0  0  0  0  0  0  0  0  0  0  0
    5.3088   -1.2769   -0.7539 C   0  0  0  0  0  0  0  0  0  0  0  0
    6.6664   -1.0646    1.4468 C   0  0  0  0  0  0  0  0  0  0  0  0
    5.0564    0.1550   -1.1288 C   0  0  0  0  0  0  0  0  0  0  0  0
    4.4330    1.0261   -0.2221 C   0  0  0  0  0  0  0  0  0  0  0  0
    5.4709    0.6532   -2.3778 C   0  0  0  0  0  0  0  0  0  0  0  0
    4.3447    2.3889   -0.5037 C   0  0  0  0  0  0  0  0  0  0  0  0
    5.3660    2.0157   -2.6702 C   0  0  0  0  0  0  0  0  0  0  0  0
    4.8316    2.8841   -1.7161 C   0  0  0  0  0  0  0  0  0  0  0  0
    4.9031    4.3488   -1.8994 C   0  0  0  0  0  0  0  0  0  0  0  0
    4.3807    4.8119   -3.0839 N   0  0  0  0  0  0  0  0  0  0  0  0
    5.4356    4.9715   -0.9891 O   0  0  0  0  0  0  0  0  0  0  0  0
    4.3641    6.1482   -3.5415 C   0  0  0  0  0  0  0  0  0  0  0  0
    3.7370    6.3944   -4.7729 C   0  0  0  0  0  0  0  0  0  0  0  0
    4.9338    7.2112   -2.8513 C   0  0  0  0  0  0  0  0  0  0  0  0
    3.6560    7.6809   -5.3308 C   0  0  0  0  0  0  0  0  0  0  0  0
    4.8805    8.4983   -3.3867 C   0  0  0  0  0  0  0  0  0  0  0  0
    4.2560    8.7449   -4.6205 C   0  0  0  0  0  0  0  0  0  0  0  0
    3.0489    7.9247   -6.5711 N   0  0  0  0  0  0  0  0  0  0  0  0
    4.2413   10.1583   -5.1437 C   0  0  0  0  0  0  0  0  0  0  0  0
    2.4155    7.1371   -7.5288 C   0  0  0  0  0  0  0  0  0  0  0  0
    2.3793    5.7991   -7.4525 N   0  0  0  0  0  0  0  0  0  0  0  0
    1.8566    7.8308   -8.5329 N   0  0  0  0  0  0  0  0  0  0  0  0
    1.7410    5.1506   -8.4419 C   0  0  0  0  0  0  0  0  0  0  0  0
    1.2081    7.1569   -9.5105 C   0  0  0  0  0  0  0  0  0  0  0  0
    1.1335    5.7799   -9.4998 C   0  0  0  0  0  0  0  0  0  0  0  0
    0.6117    7.9890  -10.5702 C   0  0  0  0  0  0  0  0  0  0  0  0
   -0.5366    7.6129  -11.2703 C   0  0  0  0  0  0  0  0  0  0  0  0
    1.1636    9.2265  -10.9364 C   0  0  0  0  0  0  0  0  0  0  0  0
   -1.1203    8.3316  -12.2613 N   0  0  0  0  0  0  0  0  0  0  0  0
    0.5865    9.9958  -11.9469 C   0  0  0  0  0  0  0  0  0  0  0  0
   -0.5440    9.5089  -12.5764 C   0  0  0  0  0  0  0  0  0  0  0  0
    9.4681    0.2383   -1.0057 H   0  0  0  0  0  0  0  0  0  0  0  0
    7.8297    0.9311   -1.0372 H   0  0  0  0  0  0  0  0  0  0  0  0
    9.2933   -0.0872    1.3326 H   0  0  0  0  0  0  0  0  0  0  0  0
    6.5937    1.1331    1.2754 H   0  0  0  0  0  0  0  0  0  0  0  0
    7.4699    0.5303    2.6983 H   0  0  0  0  0  0  0  0  0  0  0  0
    9.2385    2.1147    2.1439 H   0  0  0  0  0  0  0  0  0  0  0  0
    8.4098    2.6343    0.6275 H   0  0  0  0  0  0  0  0  0  0  0  0
   10.0920    1.9840    0.5728 H   0  0  0  0  0  0  0  0  0  0  0  0
    8.6274   -1.9911   -0.4140 H   0  0  0  0  0  0  0  0  0  0  0  0
    7.7074   -1.4739   -1.8391 H   0  0  0  0  0  0  0  0  0  0  0  0
    6.5888   -2.5669    0.0738 H   0  0  0  0  0  0  0  0  0  0  0  0
    4.5023   -1.6647   -0.1203 H   0  0  0  0  0  0  0  0  0  0  0  0
    5.3389   -1.9116   -1.6479 H   0  0  0  0  0  0  0  0  0  0  0  0
    7.3000   -1.7930    1.9662 H   0  0  0  0  0  0  0  0  0  0  0  0
    5.6563   -1.1362    1.8619 H   0  0  0  0  0  0  0  0  0  0  0  0
    4.0257    0.6699    0.7233 H   0  0  0  0  0  0  0  0  0  0  0  0
    5.8976   -0.0037   -3.1358 H   0  0  0  0  0  0  0  0  0  0  0  0
    3.9098    3.0763    0.2229 H   0  0  0  0  0  0  0  0  0  0  0  0
    5.7411    2.4010   -3.6178 H   0  0  0  0  0  0  0  0  0  0  0  0
    3.9064    4.1504   -3.6872 H   0  0  0  0  0  0  0  0  0  0  0  0
    3.2913    5.5615   -5.3058 H   0  0  0  0  0  0  0  0  0  0  0  0
    5.4280    7.0810   -1.8948 H   0  0  0  0  0  0  0  0  0  0  0  0
    5.3347    9.3157   -2.8292 H   0  0  0  0  0  0  0  0  0  0  0  0
    2.9079    8.8907   -6.8311 H   0  0  0  0  0  0  0  0  0  0  0  0
    4.7163   10.2044   -6.1290 H   0  0  0  0  0  0  0  0  0  0  0  0
    3.2122   10.5252   -5.2132 H   0  0  0  0  0  0  0  0  0  0  0  0
    4.7910   10.8392   -4.4849 H   0  0  0  0  0  0  0  0  0  0  0  0
    1.7331    4.0679   -8.3595 H   0  0  0  0  0  0  0  0  0  0  0  0
    0.6462    5.2084  -10.2782 H   0  0  0  0  0  0  0  0  0  0  0  0
   -1.0636    6.6892  -11.0461 H   0  0  0  0  0  0  0  0  0  0  0  0
    2.0551    9.5986  -10.4354 H   0  0  0  0  0  0  0  0  0  0  0  0
    1.0112   10.9515  -12.2337 H   0  0  0  0  0  0  0  0  0  0  0  0
   -1.0309   10.0688  -13.3701 H   0  0  0  0  0  0  0  0  0  0  0  0
  1  2  1  0
  2  3  1  0
  2  4  1  0
  5  1  1  0
  6  5  1  0
  7  6  1  0
  6  8  1  0
  9  7  1  0
  3  8  1  0
 10  9  1  0
  9 11  2  0
 12 10  2  0
 11 13  1  0
 14 12  1  0
 13 14  2  0
 15 14  1  0
 16 15  1  0
 15 17  2  0
 18 16  1  0
 19 18  2  0
 18 20  1  0
 21 19  1  0
 20 22  2  0
 23 21  2  0
 21 24  1  0
 22 23  1  0
 25 23  1  0
 24 26  1  0
 26 27  2  0
 28 26  1  0
 27 29  1  0
 30 28  2  0
 29 31  2  0
 31 30  1  0
 30 32  1  0
 32 33  2  0
 34 32  1  0
 33 35  1  0
 36 34  2  0
 35 37  2  0
 37 36  1  0
  1 38  1  0
  1 39  1  0
  2 40  1  0
  3 41  1  0
  3 42  1  0
  4 43  1  0
  4 44  1  0
  4 45  1  0
  5 46  1  0
  5 47  1  0
  6 48  1  0
  7 49  1  0
  7 50  1  0
  8 51  1  0
  8 52  1  0
 10 53  1  0
 11 54  1  0
 12 55  1  0
 13 56  1  0
 16 57  1  0
 19 58  1  0
 20 59  1  0
 22 60  1  0
 24 61  1  0
 25 62  1  0
 25 63  1  0
 25 64  1  0
 29 65  1  0
 31 66  1  0
 33 67  1  0
 34 68  1  0
 36 69  1  0
 37 70  1  0
M  CHG  2   2   1   6   1
M  END
>  <pka_props_0>  (1) 
{'name': 'pyridine', 'atom': 34, 'pKa': 5.25}

>  <pka_props_1>  (1) 
{'name': 'amine3', 'atom': 1, 'pKa': 10.0}

>  <pka_props_2>  (1) 
{'name': 'amine3', 'atom': 5, 'pKa': 10.0}

>  <pka_props_3>  (1) 
{'name': 'aniline', 'atom': 15, 'pKa': 4.6}

>  <pka_props_4>  (1) 
{'name': 'aniline', 'atom': 23, 'pKa': 4.6}

>  <ScrubInfo>  (1) 
{"isomerGroup": 0, "isomerId": 0, "confId": 0, "nr_conformers:": 1, "nr_isomers:": 1}

$$$$
