
     RDKit          3D

 70 74  0  0  0  0  0  0  0  0999 V2000
    9.0560   -0.1634   -0.6634 C   0  0  0  0  0  0  0  0  0  0  0  0
    9.3591    1.3234   -0.4799 N   0  0  0  0  0  0  0  0  0  0  0  0
    9.4501    1.7488    0.9699 C   0  0  0  0  0  0  0  0  0  0  0  0
    8.4645    2.2236   -1.3277 C   0  0  0  0  0  0  0  0  0  0  0  0
    7.5527   -0.4725   -0.4718 C   0  0  0  0  0  0  0  0  0  0  0  0
    6.6684    0.4076   -1.3597 N   0  0  0  0  0  0  0  0  0  0  0  0
    6.6020    0.0067   -2.8323 C   0  0  0  0  0  0  0  0  0  0  0  0
    6.9587    1.8919   -1.1546 C   0  0  0  0  0  0  0  0  0  0  0  0
    6.1809   -1.4216   -3.0379 C   0  0  0  0  0  0  0  0  0  0  0  0
    7.1224   -2.3826   -3.4389 C   0  0  0  0  0  0  0  0  0  0  0  0
    4.8595   -1.8269   -2.7802 C   0  0  0  0  0  0  0  0  0  0  0  0
    6.7602   -3.7269   -3.5329 C   0  0  0  0  0  0  0  0  0  0  0  0
    4.4953   -3.1742   -2.8839 C   0  0  0  0  0  0  0  0  0  0  0  0
    5.4494   -4.1274   -3.2526 C   0  0  0  0  0  0  0  0  0  0  0  0
    5.1403   -5.5802   -3.2701 C   0  0  0  0  0  0  0  0  0  0  0  0
    3.9147   -5.9129   -3.8054 N   0  0  0  0  0  0  0  0  0  0  0  0
    5.9994   -6.3274   -2.8195 O   0  0  0  0  0  0  0  0  0  0  0  0
    3.3468   -7.2039   -3.8942 C   0  0  0  0  0  0  0  0  0  0  0  0
    2.1102   -7.3151   -4.5497 C   0  0  0  0  0  0  0  0  0  0  0  0
    3.9328   -8.3471   -3.3648 C   0  0  0  0  0  0  0  0  0  0  0  0
    1.4475   -8.5445   -4.7005 C   0  0  0  0  0  0  0  0  0  0  0  0
    3.2924   -9.5803   -3.4881 C   0  0  0  0  0  0  0  0  0  0  0  0
    2.0551   -9.6922   -4.1432 C   0  0  0  0  0  0  0  0  0  0  0  0
    0.2042   -8.6545   -5.3399 N   0  0  0  0  0  0  0  0  0  0  0  0
    1.4166  -11.0543   -4.2339 C   0  0  0  0  0  0  0  0  0  0  0  0
   -0.6708   -7.7626   -5.9536 C   0  0  0  0  0  0  0  0  0  0  0  0
   -0.4736   -6.4366   -5.9446 N   0  0  0  0  0  0  0  0  0  0  0  0
   -1.7271   -8.3434   -6.5445 N   0  0  0  0  0  0  0  0  0  0  0  0
   -1.3933   -5.6804   -6.5680 C   0  0  0  0  0  0  0  0  0  0  0  0
   -2.6329   -7.5627   -7.1770 C   0  0  0  0  0  0  0  0  0  0  0  0
   -2.4971   -6.1907   -7.2046 C   0  0  0  0  0  0  0  0  0  0  0  0
   -3.7574   -8.2752   -7.8088 C   0  0  0  0  0  0  0  0  0  0  0  0
   -4.4116   -7.7979   -8.9465 C   0  0  0  0  0  0  0  0  0  0  0  0
   -4.2371   -9.4938   -7.3036 C   0  0  0  0  0  0  0  0  0  0  0  0
   -5.4581   -8.4038   -9.5607 N   0  0  0  0  0  0  0  0  0  0  0  0
   -5.3072  -10.1488   -7.9132 C   0  0  0  0  0  0  0  0  0  0  0  0
   -5.8814   -9.5679   -9.0287 C   0  0  0  0  0  0  0  0  0  0  0  0
    9.3798   -0.4147   -1.6787 H   0  0  0  0  0  0  0  0  0  0  0  0
    9.6748   -0.7182    0.0487 H   0  0  0  0  0  0  0  0  0  0  0  0
   10.3217    1.4609   -0.8343 H   0  0  0  0  0  0  0  0  0  0  0  0
   10.1861    1.1083    1.4621 H   0  0  0  0  0  0  0  0  0  0  0  0
    9.7839    2.7892    0.9930 H   0  0  0  0  0  0  0  0  0  0  0  0
    8.4655    1.6423    1.4296 H   0  0  0  0  0  0  0  0  0  0  0  0
    8.6798    3.2610   -1.0531 H   0  0  0  0  0  0  0  0  0  0  0  0
    8.7778    2.0671   -2.3652 H   0  0  0  0  0  0  0  0  0  0  0  0
    7.3253   -1.5215   -0.6745 H   0  0  0  0  0  0  0  0  0  0  0  0
    7.2452   -0.2585    0.5577 H   0  0  0  0  0  0  0  0  0  0  0  0
    5.7047    0.2495   -1.0245 H   0  0  0  0  0  0  0  0  0  0  0  0
    5.8801    0.6776   -3.3123 H   0  0  0  0  0  0  0  0  0  0  0  0
    7.5881    0.2010   -3.2669 H   0  0  0  0  0  0  0  0  0  0  0  0
    6.3408    2.4541   -1.8617 H   0  0  0  0  0  0  0  0  0  0  0  0
    6.6256    2.1276   -0.1382 H   0  0  0  0  0  0  0  0  0  0  0  0
    8.1500   -2.1154   -3.6791 H   0  0  0  0  0  0  0  0  0  0  0  0
    4.0915   -1.1113   -2.4894 H   0  0  0  0  0  0  0  0  0  0  0  0
    7.4999   -4.4755   -3.8205 H   0  0  0  0  0  0  0  0  0  0  0  0
    3.4782   -3.4771   -2.6388 H   0  0  0  0  0  0  0  0  0  0  0  0
    3.3728   -5.1813   -4.2467 H   0  0  0  0  0  0  0  0  0  0  0  0
    1.6577   -6.4199   -4.9616 H   0  0  0  0  0  0  0  0  0  0  0  0
    4.8848   -8.3209   -2.8455 H   0  0  0  0  0  0  0  0  0  0  0  0
    3.7705  -10.4610   -3.0628 H   0  0  0  0  0  0  0  0  0  0  0  0
   -0.1410   -9.5878   -5.5130 H   0  0  0  0  0  0  0  0  0  0  0  0
    0.4241  -11.0409   -3.7722 H   0  0  0  0  0  0  0  0  0  0  0  0
    2.0084  -11.8142   -3.7123 H   0  0  0  0  0  0  0  0  0  0  0  0
    1.3319  -11.3635   -5.2807 H   0  0  0  0  0  0  0  0  0  0  0  0
   -1.2129   -4.6101   -6.5384 H   0  0  0  0  0  0  0  0  0  0  0  0
   -3.2156   -5.5351   -7.6778 H   0  0  0  0  0  0  0  0  0  0  0  0
   -4.1013   -6.8800   -9.4388 H   0  0  0  0  0  0  0  0  0  0  0  0
   -3.7785   -9.9404   -6.4234 H   0  0  0  0  0  0  0  0  0  0  0  0
   -5.6812  -11.0896   -7.5245 H   0  0  0  0  0  0  0  0  0  0  0  0
   -6.7177  -10.0373   -9.5393 H   0  0  0  0  0  0  0  0  0  0  0  0
  1  2  1  0
  2  3  1  0
  2  4  1  0
  5  1  1  0
  6  5  1  0
  7  6  1  0
  6  8  1  0
  9  7  1  0
  4  8  1  0
 10  9  1  0
  9 11  2  0
 12 10  2  0
 11 13  1  0
 14 12  1  0
 13 14  2  0
 15 14  1  0
 16 15  1  0
 15 17  2  0
 18 16  1  0
 19 18  2  0
 18 20  1  0
 21 19  1  0
 20 22  2  0
 23 21  2  0
 21 24  1  0
 22 23  1  0
 25 23  1  0
 24 26  1  0
 26 27  2  0
 28 26  1  0
 27 29  1  0
 30 28  2  0
 29 31  2  0
 31 30  1  0
 30 32  1  0
 32 33  2  0
 34 32  1  0
 33 35  1  0
 36 34  2  0
 35 37  2  0
 37 36  1  0
  1 38  1  0
  1 39  1  0
  2 40  1  0
  3 41  1  0
  3 42  1  0
  3 43  1  0
  4 44  1  0
  4 45  1  0
  5 46  1  0
  5 47  1  0
  6 48  1  0
  7 49  1  0
  7 50  1  0
  8 51  1  0
  8 52  1  0
 10 53  1  0
 11 54  1  0
 12 55  1  0
 13 56  1  0
 16 57  1  0
 19 58  1  0
 20 59  1  0
 22 60  1  0
 24 61  1  0
 25 62  1  0
 25 63  1  0
 25 64  1  0
 29 65  1  0
 31 66  1  0
 33 67  1  0
 34 68  1  0
 36 69  1  0
 37 70  1  0
M  CHG  2   2   1   6   1
M  END
>  <pka_props_0>  (1) 
{'name': 'pyridine', 'atom': 34, 'pKa': 5.25}

>  <pka_props_1>  (1) 
{'name': 'amine3', 'atom': 1, 'pKa': 10.0}

>  <pka_props_2>  (1) 
{'name': 'amine3', 'atom': 5, 'pKa': 10.0}

>  <pka_props_3>  (1) 
{'name': 'aniline', 'atom': 15, 'pKa': 4.6}

>  <pka_props_4>  (1) 
{'name': 'aniline', 'atom': 23, 'pKa': 4.6}

>  <ScrubInfo>  (1) 
{"isomerGroup": 0, "isomerId": 0, "confId": 0, "nr_conformers:": 1, "nr_isomers:": 1}

$$$$
