
     RDKit          3D

122128  0  0  0  0  0  0  0  0999 V2000
   -5.8816    1.6991   -0.9580 C   0  0  0  0  0  0  0  0  0  0  0  0
   -4.9069    1.4371   -2.0939 N   0  0  0  0  0  0  0  0  0  0  0  0
   -5.5991    0.9293   -3.3633 C   0  0  0  0  0  0  0  0  0  0  0  0
   -3.8364    0.4227   -1.6738 C   0  0  0  0  0  0  0  0  0  0  0  0
   -6.5973    3.0362   -1.1528 C   0  0  0  0  0  0  0  0  0  0  0  0
   -7.8600    3.2556   -0.2842 C   0  0  1  0  0  0  0  0  0  0  0  0
   -8.8631    2.2057   -0.5306 N   0  0  0  0  0  0  0  0  0  0  0  0
   -7.5888    3.3924    1.2359 C   0  0  0  0  0  0  0  0  0  0  0  0
   -9.5736    2.0528   -1.7168 C   0  0  0  0  0  0  0  0  0  0  0  0
   -7.1787    1.8184    2.0817 S   0  0  0  0  0  0  0  0  0  0  0  0
  -10.2351    0.8480   -2.0447 C   0  0  0  0  0  0  0  0  0  0  0  0
   -9.7612    3.1264   -2.6036 C   0  0  0  0  0  0  0  0  0  0  0  0
   -6.7846    2.4297    3.7113 C   0  0  0  0  0  0  0  0  0  0  0  0
  -10.9489    0.6882   -3.2465 C   0  0  0  0  0  0  0  0  0  0  0  0
  -10.1275   -0.5760   -0.9593 S   0  0  0  0  0  0  0  0  0  0  0  0
  -10.4866    2.9909   -3.7938 C   0  0  0  0  0  0  0  0  0  0  0  0
   -5.5558    2.0853    4.2837 C   0  0  0  0  0  0  0  0  0  0  0  0
   -7.6828    3.2141    4.4419 C   0  0  0  0  0  0  0  0  0  0  0  0
  -11.0717    1.7696   -4.1141 C   0  0  0  0  0  0  0  0  0  0  0  0
   -8.7748   -0.5393   -0.4110 O   0  0  0  0  0  0  0  0  0  0  0  0
  -10.5292   -1.7250   -1.7572 O   0  0  0  0  0  0  0  0  0  0  0  0
  -11.3864   -0.1837    0.3051 C   0  0  0  0  0  0  0  0  0  0  0  0
   -5.2172    2.5447    5.5584 C   0  0  0  0  0  0  0  0  0  0  0  0
   -7.3430    3.6731    5.7168 C   0  0  0  0  0  0  0  0  0  0  0  0
  -11.8962    1.5630   -5.6722 S   0  0  0  0  0  0  0  0  0  0  0  0
  -12.5855    0.1446   -0.2572 F   0  0  0  0  0  0  0  0  0  0  0  0
  -11.6224   -1.2330    1.1396 F   0  0  0  0  0  0  0  0  0  0  0  0
  -11.0261    0.8670    1.0930 F   0  0  0  0  0  0  0  0  0  0  0  0
   -6.1090    3.3421    6.2722 C   0  0  0  0  0  0  0  0  0  0  0  0
  -13.5093    1.4493   -5.2975 N   0  0  0  0  0  0  0  0  0  0  0  0
  -11.5166    0.2553   -6.1630 O   0  0  0  0  0  0  0  0  0  0  0  0
  -11.6841    2.7464   -6.4727 O   0  0  0  0  0  0  0  0  0  0  0  0
  -14.2305    2.3928   -4.5595 C   0  0  0  0  0  0  0  0  0  0  0  0
  -15.7052    2.1854   -4.5196 C   0  0  0  0  0  0  0  0  0  0  0  0
  -13.7054    3.3142   -3.9566 O   0  0  0  0  0  0  0  0  0  0  0  0
  -16.3958    1.4810   -5.5100 C   0  0  0  0  0  0  0  0  0  0  0  0
  -16.4243    2.7234   -3.4507 C   0  0  0  0  0  0  0  0  0  0  0  0
  -17.7892    1.3232   -5.4284 C   0  0  0  0  0  0  0  0  0  0  0  0
  -17.8134    2.5559   -3.3773 C   0  0  0  0  0  0  0  0  0  0  0  0
  -18.5326    1.8675   -4.3700 C   0  0  0  0  0  0  0  0  0  0  0  0
  -19.9300    1.7416   -4.2541 N   0  0  0  0  0  0  0  0  0  0  0  0
  -20.6338    3.0498   -4.2220 C   0  0  0  0  0  0  0  0  0  0  0  0
  -20.5986    0.7163   -5.0834 C   0  0  0  0  0  0  0  0  0  0  0  0
  -22.1066    2.8731   -3.7916 C   0  0  0  0  0  0  0  0  0  0  0  0
  -22.0662    0.5259   -4.6415 C   0  0  0  0  0  0  0  0  0  0  0  0
  -22.8365    1.8430   -4.6462 N   0  0  0  0  0  0  0  0  0  0  0  0
  -23.1863    2.3248   -6.0329 C   0  0  0  0  0  0  0  0  0  0  0  0
  -24.2599    3.3891   -6.0470 C   0  0  0  0  0  0  0  0  0  0  0  0
  -24.0621    4.6883   -6.3780 C   0  0  0  0  0  0  0  0  0  0  0  0
  -25.6520    2.8816   -5.6968 C   0  0  0  0  0  0  0  0  0  0  0  0
  -25.1664    5.7279   -6.3799 C   0  0  0  0  0  0  0  0  0  0  0  0
  -22.7428    5.2191   -6.7694 C   0  0  0  0  0  0  0  0  0  0  0  0
  -26.8208    3.8012   -6.1214 C   0  0  0  0  0  0  0  0  0  0  0  0
  -26.4703    5.2496   -5.7395 C   0  0  0  0  0  0  0  0  0  0  0  0
  -22.0283    6.0502   -5.8958 C   0  0  0  0  0  0  0  0  0  0  0  0
  -22.1941    4.9040   -8.0201 C   0  0  0  0  0  0  0  0  0  0  0  0
  -28.0991    3.3743   -5.3771 C   0  0  0  0  0  0  0  0  0  0  0  0
  -27.0852    3.6764   -7.6354 C   0  0  0  0  0  0  0  0  0  0  0  0
  -20.7653    6.5290   -6.2531 C   0  0  0  0  0  0  0  0  0  0  0  0
  -20.9300    5.3815   -8.3755 C   0  0  0  0  0  0  0  0  0  0  0  0
  -20.2178    6.1851   -7.4876 C   0  0  0  0  0  0  0  0  0  0  0  0
  -18.6526    6.7516   -7.9143 Cl  0  0  0  0  0  0  0  0  0  0  0  0
   -4.5495    0.6607   -4.4471 C   0  0  0  0  0  0  0  0  0  0  0  0
   -3.5781   -0.2883   -3.9971 O   0  0  0  0  0  0  0  0  0  0  0  0
   -2.8748    0.1750   -2.8406 C   0  0  0  0  0  0  0  0  0  0  0  0
   -6.5553    0.8407   -0.9201 H   0  0  0  0  0  0  0  0  0  0  0  0
   -5.2786    1.7337   -0.0464 H   0  0  0  0  0  0  0  0  0  0  0  0
   -4.4189    2.3131   -2.3205 H   0  0  0  0  0  0  0  0  0  0  0  0
   -6.1265    0.0096   -3.0883 H   0  0  0  0  0  0  0  0  0  0  0  0
   -6.3097    1.6910   -3.6919 H   0  0  0  0  0  0  0  0  0  0  0  0
   -4.3665   -0.4935   -1.3920 H   0  0  0  0  0  0  0  0  0  0  0  0
   -3.3080    0.8406   -0.8116 H   0  0  0  0  0  0  0  0  0  0  0  0
   -5.8854    3.8474   -0.9513 H   0  0  0  0  0  0  0  0  0  0  0  0
   -6.8848    3.1561   -2.2026 H   0  0  0  0  0  0  0  0  0  0  0  0
   -8.2771    4.2282   -0.5730 H   0  0  0  0  0  0  0  0  0  0  0  0
   -8.6133    1.3327   -0.0485 H   0  0  0  0  0  0  0  0  0  0  0  0
   -6.7770    4.1099    1.4001 H   0  0  0  0  0  0  0  0  0  0  0  0
   -8.4923    3.7946    1.7072 H   0  0  0  0  0  0  0  0  0  0  0  0
   -9.3566    4.1128   -2.3918 H   0  0  0  0  0  0  0  0  0  0  0  0
  -11.3994   -0.2675   -3.5111 H   0  0  0  0  0  0  0  0  0  0  0  0
  -10.5992    3.8497   -4.4550 H   0  0  0  0  0  0  0  0  0  0  0  0
   -4.8508    1.4531    3.7509 H   0  0  0  0  0  0  0  0  0  0  0  0
   -8.6626    3.4636    4.0442 H   0  0  0  0  0  0  0  0  0  0  0  0
   -4.2613    2.2741    6.0001 H   0  0  0  0  0  0  0  0  0  0  0  0
   -8.0458    4.2802    6.2832 H   0  0  0  0  0  0  0  0  0  0  0  0
   -5.8479    3.6944    7.2677 H   0  0  0  0  0  0  0  0  0  0  0  0
  -13.9079    0.5563   -5.5671 H   0  0  0  0  0  0  0  0  0  0  0  0
  -15.8837    1.0798   -6.3811 H   0  0  0  0  0  0  0  0  0  0  0  0
  -15.9119    3.2734   -2.6624 H   0  0  0  0  0  0  0  0  0  0  0  0
  -18.2711    0.7858   -6.2403 H   0  0  0  0  0  0  0  0  0  0  0  0
  -18.3272    2.9606   -2.5077 H   0  0  0  0  0  0  0  0  0  0  0  0
  -20.1729    3.7443   -3.5114 H   0  0  0  0  0  0  0  0  0  0  0  0
  -20.5764    3.5121   -5.2131 H   0  0  0  0  0  0  0  0  0  0  0  0
  -20.5698    1.0011   -6.1422 H   0  0  0  0  0  0  0  0  0  0  0  0
  -20.0909   -0.2497   -4.9736 H   0  0  0  0  0  0  0  0  0  0  0  0
  -22.6633    3.8128   -3.8330 H   0  0  0  0  0  0  0  0  0  0  0  0
  -22.1569    2.4945   -2.7639 H   0  0  0  0  0  0  0  0  0  0  0  0
  -22.5993   -0.1750   -5.2918 H   0  0  0  0  0  0  0  0  0  0  0  0
  -22.1141    0.1523   -3.6122 H   0  0  0  0  0  0  0  0  0  0  0  0
  -23.7262    1.6541   -4.1727 H   0  0  0  0  0  0  0  0  0  0  0  0
  -23.5480    1.4525   -6.5909 H   0  0  0  0  0  0  0  0  0  0  0  0
  -22.2555    2.6329   -6.5120 H   0  0  0  0  0  0  0  0  0  0  0  0
  -25.8033    1.8918   -6.1471 H   0  0  0  0  0  0  0  0  0  0  0  0
  -25.6803    2.7347   -4.6088 H   0  0  0  0  0  0  0  0  0  0  0  0
  -24.8453    6.6334   -5.8504 H   0  0  0  0  0  0  0  0  0  0  0  0
  -25.3622    6.0276   -7.4176 H   0  0  0  0  0  0  0  0  0  0  0  0
  -26.3703    5.3233   -4.6476 H   0  0  0  0  0  0  0  0  0  0  0  0
  -27.2819    5.9329   -6.0191 H   0  0  0  0  0  0  0  0  0  0  0  0
  -22.4514    6.3446   -4.9374 H   0  0  0  0  0  0  0  0  0  0  0  0
  -22.7505    4.3007   -8.7350 H   0  0  0  0  0  0  0  0  0  0  0  0
  -27.9735    3.4557   -4.2915 H   0  0  0  0  0  0  0  0  0  0  0  0
  -28.9504    4.0040   -5.6603 H   0  0  0  0  0  0  0  0  0  0  0  0
  -28.3606    2.3345   -5.6045 H   0  0  0  0  0  0  0  0  0  0  0  0
  -27.3938    2.6572   -7.8954 H   0  0  0  0  0  0  0  0  0  0  0  0
  -26.2007    3.9081   -8.2370 H   0  0  0  0  0  0  0  0  0  0  0  0
  -27.8869    4.3548   -7.9493 H   0  0  0  0  0  0  0  0  0  0  0  0
  -20.2184    7.1793   -5.5739 H   0  0  0  0  0  0  0  0  0  0  0  0
  -20.5127    5.1375   -9.3499 H   0  0  0  0  0  0  0  0  0  0  0  0
   -5.0348    0.2440   -5.3350 H   0  0  0  0  0  0  0  0  0  0  0  0
   -4.0420    1.5852   -4.7459 H   0  0  0  0  0  0  0  0  0  0  0  0
   -2.3174    1.0841   -3.0957 H   0  0  0  0  0  0  0  0  0  0  0  0
   -2.1482   -0.5950   -2.5623 H   0  0  0  0  0  0  0  0  0  0  0  0
  1  2  1  0
  2  3  1  0
  2  4  1  0
  5  1  1  0
  6  5  1  0
  7  6  1  0
  6  8  1  0
  9  7  1  0
  8 10  1  0
 11  9  2  0
  9 12  1  0
 10 13  1  0
 14 11  1  0
 11 15  1  0
 12 16  2  0
 13 17  2  0
 18 13  1  0
 19 14  2  0
 15 20  2  0
 15 21  2  0
 15 22  1  0
 16 19  1  0
 17 23  1  0
 24 18  2  0
 25 19  1  0
 22 26  1  0
 22 27  1  0
 22 28  1  0
 23 29  2  0
 29 24  1  0
 30 25  1  0
 25 31  2  0
 25 32  2  0
 33 30  1  0
 34 33  1  0
 33 35  2  0
 36 34  1  0
 34 37  2  0
 38 36  2  0
 37 39  1  0
 40 38  1  0
 39 40  2  0
 41 40  1  0
 42 41  1  0
 41 43  1  0
 44 42  1  0
 43 45  1  0
 46 44  1  0
 46 45  1  0
 47 46  1  0
 48 47  1  0
 49 48  2  0
 48 50  1  0
 51 49  1  0
 49 52  1  0
 50 53  1  0
 54 51  1  0
 52 55  1  0
 56 52  2  0
 57 53  1  0
 53 54  1  0
 53 58  1  0
 55 59  2  0
 60 56  1  0
 59 61  1  0
 61 60  2  0
 61 62  1  0
  3 63  1  0
 63 64  1  0
 64 65  1  0
 65  4  1  0
  1 66  1  0
  1 67  1  0
  2 68  1  0
  3 69  1  0
  3 70  1  0
  4 71  1  0
  4 72  1  0
  5 73  1  0
  5 74  1  0
  6 75  1  6
  7 76  1  0
  8 77  1  0
  8 78  1  0
 12 79  1  0
 14 80  1  0
 16 81  1  0
 17 82  1  0
 18 83  1  0
 23 84  1  0
 24 85  1  0
 29 86  1  0
 30 87  1  0
 36 88  1  0
 37 89  1  0
 38 90  1  0
 39 91  1  0
 42 92  1  0
 42 93  1  0
 43 94  1  0
 43 95  1  0
 44 96  1  0
 44 97  1  0
 45 98  1  0
 45 99  1  0
 46100  1  0
 47101  1  0
 47102  1  0
 50103  1  0
 50104  1  0
 51105  1  0
 51106  1  0
 54107  1  0
 54108  1  0
 55109  1  0
 56110  1  0
 57111  1  0
 57112  1  0
 57113  1  0
 58114  1  0
 58115  1  0
 58116  1  0
 59117  1  0
 60118  1  0
 63119  1  0
 63120  1  0
 65121  1  0
 65122  1  0
M  CHG  2   2   1  46   1
M  END
>  <pka_props_0>  (1) 
{'name': 'amine3', 'atom': 1, 'pKa': 10.0}

>  <pka_props_1>  (1) 
{'name': 'amine3', 'atom': 45, 'pKa': 10.0}

>  <pka_props_2>  (1) 
{'name': 'aniline', 'atom': 6, 'pKa': 4.6}

>  <pka_props_3>  (1) 
{'name': 'aniline', 'atom': 40, 'pKa': 4.6}

>  <ScrubInfo>  (1) 
{"isomerGroup": 0, "isomerId": 0, "confId": 0, "nr_conformers:": 1, "nr_isomers:": 1}

$$$$
