
     RDKit          3D

 70 74  0  0  0  0  0  0  0  0999 V2000
   -8.2573   -0.3217    0.7039 C   0  0  0  0  0  0  0  0  0  0  0  0
   -9.2741   -1.0927   -0.1362 N   0  0  0  0  0  0  0  0  0  0  0  0
  -10.2576   -1.8458    0.7415 C   0  0  0  0  0  0  0  0  0  0  0  0
   -8.6210   -2.0221   -1.1597 C   0  0  0  0  0  0  0  0  0  0  0  0
   -7.2331    0.4256   -0.1893 C   0  0  0  0  0  0  0  0  0  0  0  0
   -6.5731   -0.5011   -1.2064 N   0  0  0  0  0  0  0  0  0  0  0  0
   -5.4680   -1.3617   -0.6034 C   0  0  0  0  0  0  0  0  0  0  0  0
   -7.6070   -1.2550   -2.0422 C   0  0  0  0  0  0  0  0  0  0  0  0
   -4.6545   -2.0954   -1.6327 C   0  0  0  0  0  0  0  0  0  0  0  0
   -4.8095   -3.4785   -1.8034 C   0  0  0  0  0  0  0  0  0  0  0  0
   -3.7211   -1.4149   -2.4326 C   0  0  0  0  0  0  0  0  0  0  0  0
   -4.0568   -4.1605   -2.7626 C   0  0  0  0  0  0  0  0  0  0  0  0
   -2.9612   -2.1030   -3.3885 C   0  0  0  0  0  0  0  0  0  0  0  0
   -3.1341   -3.4799   -3.5681 C   0  0  0  0  0  0  0  0  0  0  0  0
   -2.3291   -4.2795   -4.5404 C   0  0  0  0  0  0  0  0  0  0  0  0
   -1.8866   -3.5986   -5.6577 N   0  0  0  0  0  0  0  0  0  0  0  0
   -2.1663   -5.4667   -4.2871 O   0  0  0  0  0  0  0  0  0  0  0  0
   -1.0584   -4.1016   -6.6876 C   0  0  0  0  0  0  0  0  0  0  0  0
   -0.4499   -5.3584   -6.6606 C   0  0  0  0  0  0  0  0  0  0  0  0
   -0.8214   -3.2625   -7.7791 C   0  0  0  0  0  0  0  0  0  0  0  0
    0.3789   -5.7973   -7.7122 C   0  0  0  0  0  0  0  0  0  0  0  0
   -0.0042   -3.6805   -8.8301 C   0  0  0  0  0  0  0  0  0  0  0  0
    0.5924   -4.9495   -8.8156 C   0  0  0  0  0  0  0  0  0  0  0  0
    1.0327   -7.0384   -7.5795 N   0  0  0  0  0  0  0  0  0  0  0  0
    1.4576   -5.3424   -9.9834 C   0  0  0  0  0  0  0  0  0  0  0  0
    2.3997   -7.2190   -7.3295 C   0  0  0  0  0  0  0  0  0  0  0  0
    2.7490   -8.4132   -6.8342 N   0  0  0  0  0  0  0  0  0  0  0  0
    3.2756   -6.2278   -7.5478 N   0  0  0  0  0  0  0  0  0  0  0  0
    4.0550   -8.6076   -6.5831 C   0  0  0  0  0  0  0  0  0  0  0  0
    4.5833   -6.4426   -7.2882 C   0  0  0  0  0  0  0  0  0  0  0  0
    5.0210   -7.6534   -6.7925 C   0  0  0  0  0  0  0  0  0  0  0  0
    5.4732   -5.2973   -7.5548 C   0  0  0  0  0  0  0  0  0  0  0  0
    4.9796   -3.9883   -7.5665 C   0  0  0  0  0  0  0  0  0  0  0  0
    6.8452   -5.4260   -7.8177 C   0  0  0  0  0  0  0  0  0  0  0  0
    5.7183   -2.8695   -7.7876 N   0  0  0  0  0  0  0  0  0  0  0  0
    7.6333   -4.2987   -8.0578 C   0  0  0  0  0  0  0  0  0  0  0  0
    7.0304   -3.0541   -8.0305 C   0  0  0  0  0  0  0  0  0  0  0  0
   -8.8199    0.3893    1.3170 H   0  0  0  0  0  0  0  0  0  0  0  0
   -7.7573   -1.0498    1.3512 H   0  0  0  0  0  0  0  0  0  0  0  0
   -9.8575   -0.4097   -0.6468 H   0  0  0  0  0  0  0  0  0  0  0  0
  -10.7409   -1.1197    1.3999 H   0  0  0  0  0  0  0  0  0  0  0  0
   -9.7050   -2.5943    1.3150 H   0  0  0  0  0  0  0  0  0  0  0  0
  -10.9974   -2.3144    0.0877 H   0  0  0  0  0  0  0  0  0  0  0  0
   -9.4256   -2.4377   -1.7743 H   0  0  0  0  0  0  0  0  0  0  0  0
   -8.1319   -2.8259   -0.5997 H   0  0  0  0  0  0  0  0  0  0  0  0
   -7.7358    1.2044   -0.7735 H   0  0  0  0  0  0  0  0  0  0  0  0
   -6.4415    0.8908    0.4062 H   0  0  0  0  0  0  0  0  0  0  0  0
   -6.0691    0.1082   -1.8707 H   0  0  0  0  0  0  0  0  0  0  0  0
   -4.8150   -0.6901   -0.0335 H   0  0  0  0  0  0  0  0  0  0  0  0
   -5.9401   -2.0515    0.1040 H   0  0  0  0  0  0  0  0  0  0  0  0
   -8.1255   -0.4906   -2.6322 H   0  0  0  0  0  0  0  0  0  0  0  0
   -7.0847   -1.9198   -2.7342 H   0  0  0  0  0  0  0  0  0  0  0  0
   -5.4876   -4.0621   -1.1832 H   0  0  0  0  0  0  0  0  0  0  0  0
   -3.5317   -0.3499   -2.3020 H   0  0  0  0  0  0  0  0  0  0  0  0
   -4.1702   -5.2408   -2.8705 H   0  0  0  0  0  0  0  0  0  0  0  0
   -2.2019   -1.5587   -3.9474 H   0  0  0  0  0  0  0  0  0  0  0  0
   -2.2229   -2.6597   -5.8116 H   0  0  0  0  0  0  0  0  0  0  0  0
   -0.5776   -6.0177   -5.8082 H   0  0  0  0  0  0  0  0  0  0  0  0
   -1.2617   -2.2715   -7.8367 H   0  0  0  0  0  0  0  0  0  0  0  0
    0.1698   -3.0099   -9.6697 H   0  0  0  0  0  0  0  0  0  0  0  0
    0.5547   -7.7212   -7.0050 H   0  0  0  0  0  0  0  0  0  0  0  0
    2.4767   -4.9705   -9.8431 H   0  0  0  0  0  0  0  0  0  0  0  0
    1.4834   -6.4273  -10.1239 H   0  0  0  0  0  0  0  0  0  0  0  0
    1.0607   -4.9192  -10.9130 H   0  0  0  0  0  0  0  0  0  0  0  0
    4.3110   -9.5877   -6.1903 H   0  0  0  0  0  0  0  0  0  0  0  0
    6.0559   -7.8577   -6.5562 H   0  0  0  0  0  0  0  0  0  0  0  0
    3.9245   -3.7902   -7.3845 H   0  0  0  0  0  0  0  0  0  0  0  0
    7.3210   -6.4021   -7.8604 H   0  0  0  0  0  0  0  0  0  0  0  0
    8.6934   -4.3928   -8.2677 H   0  0  0  0  0  0  0  0  0  0  0  0
    7.6027   -2.1490   -8.2126 H   0  0  0  0  0  0  0  0  0  0  0  0
  1  2  1  0
  2  3  1  0
  2  4  1  0
  5  1  1  0
  6  5  1  0
  7  6  1  0
  6  8  1  0
  9  7  1  0
  4  8  1  0
 10  9  1  0
  9 11  2  0
 12 10  2  0
 11 13  1  0
 14 12  1  0
 13 14  2  0
 15 14  1  0
 16 15  1  0
 15 17  2  0
 18 16  1  0
 19 18  2  0
 18 20  1  0
 21 19  1  0
 20 22  2  0
 23 21  2  0
 21 24  1  0
 22 23  1  0
 25 23  1  0
 24 26  1  0
 26 27  2  0
 28 26  1  0
 27 29  1  0
 30 28  2  0
 29 31  2  0
 31 30  1  0
 30 32  1  0
 32 33  2  0
 34 32  1  0
 33 35  1  0
 36 34  2  0
 35 37  2  0
 37 36  1  0
  1 38  1  0
  1 39  1  0
  2 40  1  0
  3 41  1  0
  3 42  1  0
  3 43  1  0
  4 44  1  0
  4 45  1  0
  5 46  1  0
  5 47  1  0
  6 48  1  0
  7 49  1  0
  7 50  1  0
  8 51  1  0
  8 52  1  0
 10 53  1  0
 11 54  1  0
 12 55  1  0
 13 56  1  0
 16 57  1  0
 19 58  1  0
 20 59  1  0
 22 60  1  0
 24 61  1  0
 25 62  1  0
 25 63  1  0
 25 64  1  0
 29 65  1  0
 31 66  1  0
 33 67  1  0
 34 68  1  0
 36 69  1  0
 37 70  1  0
M  CHG  2   2   1   6   1
M  END
>  <pka_props_0>  (1) 
{'name': 'pyridine', 'atom': 34, 'pKa': 5.25}

>  <pka_props_1>  (1) 
{'name': 'amine3', 'atom': 1, 'pKa': 10.0}

>  <pka_props_2>  (1) 
{'name': 'amine3', 'atom': 5, 'pKa': 10.0}

>  <pka_props_3>  (1) 
{'name': 'aniline', 'atom': 15, 'pKa': 4.6}

>  <pka_props_4>  (1) 
{'name': 'aniline', 'atom': 23, 'pKa': 4.6}

>  <ScrubInfo>  (1) 
{"isomerGroup": 0, "isomerId": 0, "confId": 0, "nr_conformers:": 1, "nr_isomers:": 1}

$$$$
