
     RDKit          3D

122128  0  0  0  0  0  0  0  0999 V2000
   -7.7231   -2.0805   -8.2655 C   0  0  0  0  0  0  0  0  0  0  0  0
   -8.2962   -3.4429   -8.5871 N   0  0  0  0  0  0  0  0  0  0  0  0
   -7.8610   -4.6085   -7.7050 C   0  0  0  0  0  0  0  0  0  0  0  0
   -8.3449   -3.8248  -10.0642 C   0  0  0  0  0  0  0  0  0  0  0  0
   -6.2046   -2.0114   -8.3064 C   0  0  0  0  0  0  0  0  0  0  0  0
   -5.6532   -0.6165   -7.9148 C   0  0  1  0  0  0  0  0  0  0  0  0
   -4.1953   -0.7788   -7.7553 N   0  0  0  0  0  0  0  0  0  0  0  0
   -5.9956    0.5137   -8.9175 C   0  0  0  0  0  0  0  0  0  0  0  0
   -3.3983    0.1112   -7.0267 C   0  0  0  0  0  0  0  0  0  0  0  0
   -5.1804    0.3316  -10.5506 S   0  0  0  0  0  0  0  0  0  0  0  0
   -1.9916   -0.0080   -7.0535 C   0  0  0  0  0  0  0  0  0  0  0  0
   -3.9274    1.0852   -6.1686 C   0  0  0  0  0  0  0  0  0  0  0  0
   -6.4723   -0.3540  -11.5660 C   0  0  0  0  0  0  0  0  0  0  0  0
   -1.1480    0.8955   -6.3867 C   0  0  0  0  0  0  0  0  0  0  0  0
   -1.2322   -1.3714   -7.9314 S   0  0  0  0  0  0  0  0  0  0  0  0
   -3.1012    1.9709   -5.4643 C   0  0  0  0  0  0  0  0  0  0  0  0
   -6.1700   -1.4585  -12.3713 C   0  0  0  0  0  0  0  0  0  0  0  0
   -7.7434    0.2217  -11.6524 C   0  0  0  0  0  0  0  0  0  0  0  0
   -1.7162    1.8909   -5.5989 C   0  0  0  0  0  0  0  0  0  0  0  0
    0.2075   -1.1613   -7.8519 O   0  0  0  0  0  0  0  0  0  0  0  0
   -1.8802   -1.4179   -9.2369 O   0  0  0  0  0  0  0  0  0  0  0  0
   -1.7145   -2.8077   -6.9142 C   0  0  0  0  0  0  0  0  0  0  0  0
   -7.1325   -1.9981  -13.2279 C   0  0  0  0  0  0  0  0  0  0  0  0
   -8.7091   -0.3217  -12.5042 C   0  0  0  0  0  0  0  0  0  0  0  0
   -0.7005    3.0583   -4.7352 S   0  0  0  0  0  0  0  0  0  0  0  0
   -0.8790   -3.8709   -7.1020 F   0  0  0  0  0  0  0  0  0  0  0  0
   -2.9703   -3.2722   -7.1910 F   0  0  0  0  0  0  0  0  0  0  0  0
   -1.6892   -2.5374   -5.5775 F   0  0  0  0  0  0  0  0  0  0  0  0
   -8.4044   -1.4327  -13.2892 C   0  0  0  0  0  0  0  0  0  0  0  0
    0.6613    2.2195   -4.2749 N   0  0  0  0  0  0  0  0  0  0  0  0
   -0.2435    4.0099   -5.7243 O   0  0  0  0  0  0  0  0  0  0  0  0
   -1.3934    3.4861   -3.5417 O   0  0  0  0  0  0  0  0  0  0  0  0
    0.6637    1.1332   -3.3953 C   0  0  0  0  0  0  0  0  0  0  0  0
    2.0037    0.6702   -2.9316 C   0  0  0  0  0  0  0  0  0  0  0  0
   -0.3556    0.5681   -3.0327 O   0  0  0  0  0  0  0  0  0  0  0  0
    3.1940    0.9618   -3.6018 C   0  0  0  0  0  0  0  0  0  0  0  0
    2.0654   -0.0764   -1.7500 C   0  0  0  0  0  0  0  0  0  0  0  0
    4.4208    0.5284   -3.0770 C   0  0  0  0  0  0  0  0  0  0  0  0
    3.2974   -0.5062   -1.2346 C   0  0  0  0  0  0  0  0  0  0  0  0
    4.5041   -0.1993   -1.8771 C   0  0  0  0  0  0  0  0  0  0  0  0
    5.7657   -0.5991   -1.4010 N   0  0  0  0  0  0  0  0  0  0  0  0
    5.8055   -1.7124   -0.4297 C   0  0  0  0  0  0  0  0  0  0  0  0
    6.6468    0.5428   -1.0530 C   0  0  0  0  0  0  0  0  0  0  0  0
    7.2538   -2.2098   -0.2382 C   0  0  0  0  0  0  0  0  0  0  0  0
    8.1014    0.0694   -0.8404 C   0  0  0  0  0  0  0  0  0  0  0  0
    8.1562   -1.0569    0.1813 N   0  0  0  0  0  0  0  0  0  0  0  0
    9.5547   -1.5144    0.4905 C   0  0  0  0  0  0  0  0  0  0  0  0
   10.3749   -0.4926    1.2439 C   0  0  0  0  0  0  0  0  0  0  0  0
   10.1028   -0.0379    2.4917 C   0  0  0  0  0  0  0  0  0  0  0  0
   11.6130   -0.0252    0.4943 C   0  0  0  0  0  0  0  0  0  0  0  0
   10.9826    0.9535    3.2268 C   0  0  0  0  0  0  0  0  0  0  0  0
    8.9160   -0.4682    3.2537 C   0  0  0  0  0  0  0  0  0  0  0  0
   12.2773    1.2573    1.0480 C   0  0  0  0  0  0  0  0  0  0  0  0
   12.3550    1.1536    2.5816 C   0  0  0  0  0  0  0  0  0  0  0  0
    8.8224   -1.7706    3.7607 C   0  0  0  0  0  0  0  0  0  0  0  0
    7.8542    0.4256    3.4542 C   0  0  0  0  0  0  0  0  0  0  0  0
   13.6997    1.3808    0.4733 C   0  0  0  0  0  0  0  0  0  0  0  0
   11.4788    2.5054    0.6197 C   0  0  0  0  0  0  0  0  0  0  0  0
    7.6680   -2.1850    4.4297 C   0  0  0  0  0  0  0  0  0  0  0  0
    6.7003    0.0099    4.1229 C   0  0  0  0  0  0  0  0  0  0  0  0
    6.6092   -1.2957    4.6014 C   0  0  0  0  0  0  0  0  0  0  0  0
    5.1775   -1.8147    5.3964 Cl  0  0  0  0  0  0  0  0  0  0  0  0
   -6.6800   -5.3827   -8.3014 C   0  0  0  0  0  0  0  0  0  0  0  0
   -6.9516   -5.7790   -9.6480 O   0  0  0  0  0  0  0  0  0  0  0  0
   -7.1257   -4.6403  -10.4960 C   0  0  0  0  0  0  0  0  0  0  0  0
   -8.0868   -1.8351   -7.2608 H   0  0  0  0  0  0  0  0  0  0  0  0
   -8.1877   -1.3786   -8.9636 H   0  0  0  0  0  0  0  0  0  0  0  0
   -9.2919   -3.3288   -8.3525 H   0  0  0  0  0  0  0  0  0  0  0  0
   -7.6476   -4.2203   -6.7045 H   0  0  0  0  0  0  0  0  0  0  0  0
   -8.7372   -5.2647   -7.6506 H   0  0  0  0  0  0  0  0  0  0  0  0
   -8.4745   -2.9117  -10.6468 H   0  0  0  0  0  0  0  0  0  0  0  0
   -9.2481   -4.4374  -10.1673 H   0  0  0  0  0  0  0  0  0  0  0  0
   -5.8232   -2.3045   -9.2870 H   0  0  0  0  0  0  0  0  0  0  0  0
   -5.7981   -2.7325   -7.5879 H   0  0  0  0  0  0  0  0  0  0  0  0
   -6.1047   -0.3723   -6.9459 H   0  0  0  0  0  0  0  0  0  0  0  0
   -3.7656   -0.9320   -8.6866 H   0  0  0  0  0  0  0  0  0  0  0  0
   -5.6364    1.4677   -8.5165 H   0  0  0  0  0  0  0  0  0  0  0  0
   -7.0780    0.6217   -9.0190 H   0  0  0  0  0  0  0  0  0  0  0  0
   -4.9973    1.2076   -6.0315 H   0  0  0  0  0  0  0  0  0  0  0  0
   -0.0675    0.8191   -6.4750 H   0  0  0  0  0  0  0  0  0  0  0  0
   -3.5496    2.7302   -4.8239 H   0  0  0  0  0  0  0  0  0  0  0  0
   -5.1678   -1.8856  -12.3686 H   0  0  0  0  0  0  0  0  0  0  0  0
   -7.9842    1.1304  -11.1053 H   0  0  0  0  0  0  0  0  0  0  0  0
   -6.8765   -2.8334  -13.8771 H   0  0  0  0  0  0  0  0  0  0  0  0
   -9.6856    0.1515  -12.5921 H   0  0  0  0  0  0  0  0  0  0  0  0
   -9.1439   -1.8282  -13.9832 H   0  0  0  0  0  0  0  0  0  0  0  0
    1.5026    2.6915   -4.5845 H   0  0  0  0  0  0  0  0  0  0  0  0
    3.2067    1.4930   -4.5486 H   0  0  0  0  0  0  0  0  0  0  0  0
    1.1511   -0.3209   -1.2090 H   0  0  0  0  0  0  0  0  0  0  0  0
    5.3242    0.7438   -3.6450 H   0  0  0  0  0  0  0  0  0  0  0  0
    3.2736   -1.0673   -0.3048 H   0  0  0  0  0  0  0  0  0  0  0  0
    5.2033   -2.5560   -0.7880 H   0  0  0  0  0  0  0  0  0  0  0  0
    5.4087   -1.3865    0.5403 H   0  0  0  0  0  0  0  0  0  0  0  0
    6.6598    1.3044   -1.8406 H   0  0  0  0  0  0  0  0  0  0  0  0
    6.2799    1.0208   -0.1351 H   0  0  0  0  0  0  0  0  0  0  0  0
    7.6648   -2.6193   -1.1677 H   0  0  0  0  0  0  0  0  0  0  0  0
    7.2954   -2.9647    0.5536 H   0  0  0  0  0  0  0  0  0  0  0  0
    8.5313   -0.3186   -1.7707 H   0  0  0  0  0  0  0  0  0  0  0  0
    8.7129    0.8948   -0.4647 H   0  0  0  0  0  0  0  0  0  0  0  0
    7.7696   -0.6898    1.0572 H   0  0  0  0  0  0  0  0  0  0  0  0
   10.0177   -1.7873   -0.4652 H   0  0  0  0  0  0  0  0  0  0  0  0
    9.4804   -2.4362    1.0782 H   0  0  0  0  0  0  0  0  0  0  0  0
   11.3565    0.1422   -0.5604 H   0  0  0  0  0  0  0  0  0  0  0  0
   12.3331   -0.8548    0.5113 H   0  0  0  0  0  0  0  0  0  0  0  0
   10.4659    1.9199    3.2829 H   0  0  0  0  0  0  0  0  0  0  0  0
   11.1391    0.6212    4.2612 H   0  0  0  0  0  0  0  0  0  0  0  0
   12.8270    2.0477    3.0078 H   0  0  0  0  0  0  0  0  0  0  0  0
   12.9980    0.3061    2.8569 H   0  0  0  0  0  0  0  0  0  0  0  0
    9.6537   -2.4671    3.6612 H   0  0  0  0  0  0  0  0  0  0  0  0
    7.9192    1.4550    3.1051 H   0  0  0  0  0  0  0  0  0  0  0  0
   14.3205    0.5246    0.7600 H   0  0  0  0  0  0  0  0  0  0  0  0
   13.6813    1.4263   -0.6214 H   0  0  0  0  0  0  0  0  0  0  0  0
   14.1960    2.2870    0.8384 H   0  0  0  0  0  0  0  0  0  0  0  0
   11.4791    2.6147   -0.4710 H   0  0  0  0  0  0  0  0  0  0  0  0
   10.4326    2.4637    0.9383 H   0  0  0  0  0  0  0  0  0  0  0  0
   11.9185    3.4154    1.0432 H   0  0  0  0  0  0  0  0  0  0  0  0
    7.6072   -3.1948    4.8311 H   0  0  0  0  0  0  0  0  0  0  0  0
    5.8842    0.7115    4.2853 H   0  0  0  0  0  0  0  0  0  0  0  0
   -6.5148   -6.2938   -7.7171 H   0  0  0  0  0  0  0  0  0  0  0  0
   -5.7472   -4.8123   -8.2748 H   0  0  0  0  0  0  0  0  0  0  0  0
   -6.2068   -4.0483  -10.5044 H   0  0  0  0  0  0  0  0  0  0  0  0
   -7.2799   -5.0102  -11.5148 H   0  0  0  0  0  0  0  0  0  0  0  0
  1  2  1  0
  2  3  1  0
  2  4  1  0
  5  1  1  0
  6  5  1  0
  7  6  1  0
  6  8  1  0
  9  7  1  0
  8 10  1  0
 11  9  2  0
  9 12  1  0
 10 13  1  0
 14 11  1  0
 11 15  1  0
 12 16  2  0
 13 17  2  0
 18 13  1  0
 19 14  2  0
 15 20  2  0
 15 21  2  0
 15 22  1  0
 16 19  1  0
 17 23  1  0
 24 18  2  0
 25 19  1  0
 22 26  1  0
 22 27  1  0
 22 28  1  0
 23 29  2  0
 29 24  1  0
 30 25  1  0
 25 31  2  0
 25 32  2  0
 33 30  1  0
 34 33  1  0
 33 35  2  0
 36 34  1  0
 34 37  2  0
 38 36  2  0
 37 39  1  0
 40 38  1  0
 39 40  2  0
 41 40  1  0
 42 41  1  0
 41 43  1  0
 44 42  1  0
 43 45  1  0
 46 44  1  0
 46 45  1  0
 47 46  1  0
 48 47  1  0
 49 48  2  0
 48 50  1  0
 51 49  1  0
 49 52  1  0
 50 53  1  0
 54 51  1  0
 52 55  1  0
 56 52  2  0
 57 53  1  0
 53 54  1  0
 53 58  1  0
 55 59  2  0
 60 56  1  0
 59 61  1  0
 61 60  2  0
 61 62  1  0
  3 63  1  0
 63 64  1  0
 64 65  1  0
 65  4  1  0
  1 66  1  0
  1 67  1  0
  2 68  1  0
  3 69  1  0
  3 70  1  0
  4 71  1  0
  4 72  1  0
  5 73  1  0
  5 74  1  0
  6 75  1  1
  7 76  1  0
  8 77  1  0
  8 78  1  0
 12 79  1  0
 14 80  1  0
 16 81  1  0
 17 82  1  0
 18 83  1  0
 23 84  1  0
 24 85  1  0
 29 86  1  0
 30 87  1  0
 36 88  1  0
 37 89  1  0
 38 90  1  0
 39 91  1  0
 42 92  1  0
 42 93  1  0
 43 94  1  0
 43 95  1  0
 44 96  1  0
 44 97  1  0
 45 98  1  0
 45 99  1  0
 46100  1  0
 47101  1  0
 47102  1  0
 50103  1  0
 50104  1  0
 51105  1  0
 51106  1  0
 54107  1  0
 54108  1  0
 55109  1  0
 56110  1  0
 57111  1  0
 57112  1  0
 57113  1  0
 58114  1  0
 58115  1  0
 58116  1  0
 59117  1  0
 60118  1  0
 63119  1  0
 63120  1  0
 65121  1  0
 65122  1  0
M  CHG  2   2   1  46   1
M  END
>  <pka_props_0>  (1) 
{'name': 'amine3', 'atom': 1, 'pKa': 10.0}

>  <pka_props_1>  (1) 
{'name': 'amine3', 'atom': 45, 'pKa': 10.0}

>  <pka_props_2>  (1) 
{'name': 'aniline', 'atom': 6, 'pKa': 4.6}

>  <pka_props_3>  (1) 
{'name': 'aniline', 'atom': 40, 'pKa': 4.6}

>  <ScrubInfo>  (1) 
{"isomerGroup": 0, "isomerId": 0, "confId": 0, "nr_conformers:": 1, "nr_isomers:": 1}

$$$$
