
     RDKit          3D

122128  0  0  0  0  0  0  0  0999 V2000
    6.0905   11.2421   -4.2529 C   0  0  0  0  0  0  0  0  0  0  0  0
    7.2335   10.3827   -3.7776 N   0  0  0  0  0  0  0  0  0  0  0  0
    6.8512    8.9009   -3.7955 C   0  0  0  0  0  0  0  0  0  0  0  0
    7.7750   10.7475   -2.3989 C   0  0  0  0  0  0  0  0  0  0  0  0
    6.4657   12.7113   -4.4502 C   0  0  0  0  0  0  0  0  0  0  0  0
    7.7748   12.9830   -5.2076 C   0  0  1  0  0  0  0  0  0  0  0  0
    8.0608   11.9989   -6.2851 N   0  0  0  0  0  0  0  0  0  0  0  0
    7.9456   14.4638   -5.6126 C   0  0  0  0  0  0  0  0  0  0  0  0
    7.4596   12.0349   -7.5589 C   0  0  0  0  0  0  0  0  0  0  0  0
    9.5957   14.8277   -6.3245 S   0  0  0  0  0  0  0  0  0  0  0  0
    8.0572   11.3753   -8.6619 C   0  0  0  0  0  0  0  0  0  0  0  0
    6.2025   12.6057   -7.7934 C   0  0  0  0  0  0  0  0  0  0  0  0
   10.6463   14.4638   -4.9302 C   0  0  0  0  0  0  0  0  0  0  0  0
    7.5094   11.4192   -9.9564 C   0  0  0  0  0  0  0  0  0  0  0  0
    9.5612   10.4251   -8.4470 S   0  0  0  0  0  0  0  0  0  0  0  0
    5.6193   12.6169   -9.0677 C   0  0  0  0  0  0  0  0  0  0  0  0
   11.6435   13.4928   -5.0668 C   0  0  0  0  0  0  0  0  0  0  0  0
   10.5005   15.1291   -3.7090 C   0  0  0  0  0  0  0  0  0  0  0  0
    6.2848   12.0450  -10.1498 C   0  0  0  0  0  0  0  0  0  0  0  0
   10.3836   11.1796   -7.5090 O   0  0  0  0  0  0  0  0  0  0  0  0
   10.0671   10.1237   -9.7775 O   0  0  0  0  0  0  0  0  0  0  0  0
    8.9260    8.9192   -7.6528 C   0  0  0  0  0  0  0  0  0  0  0  0
   12.4646   13.1676   -3.9856 C   0  0  0  0  0  0  0  0  0  0  0  0
   11.3230   14.8037   -2.6281 C   0  0  0  0  0  0  0  0  0  0  0  0
    5.5157   12.1130  -11.7456 S   0  0  0  0  0  0  0  0  0  0  0  0
    9.8632    7.9342   -7.5639 F   0  0  0  0  0  0  0  0  0  0  0  0
    8.5016    9.1408   -6.3657 F   0  0  0  0  0  0  0  0  0  0  0  0
    7.8585    8.3818   -8.3082 F   0  0  0  0  0  0  0  0  0  0  0  0
   12.3005   13.8199   -2.7649 C   0  0  0  0  0  0  0  0  0  0  0  0
    6.0299   10.7765  -12.5867 N   0  0  0  0  0  0  0  0  0  0  0  0
    6.1020   13.2432  -12.4304 O   0  0  0  0  0  0  0  0  0  0  0  0
    4.0871   11.9954  -11.5611 O   0  0  0  0  0  0  0  0  0  0  0  0
    5.8447    9.4491  -12.1912 C   0  0  0  0  0  0  0  0  0  0  0  0
    6.1043    8.4263  -13.2445 C   0  0  0  0  0  0  0  0  0  0  0  0
    5.5390    9.1289  -11.0535 O   0  0  0  0  0  0  0  0  0  0  0  0
    6.4109    7.1224  -12.8493 C   0  0  0  0  0  0  0  0  0  0  0  0
    6.0460    8.7197  -14.6107 C   0  0  0  0  0  0  0  0  0  0  0  0
    6.6597    6.1324  -13.8096 C   0  0  0  0  0  0  0  0  0  0  0  0
    6.2962    7.7196  -15.5641 C   0  0  0  0  0  0  0  0  0  0  0  0
    6.5980    6.4025  -15.1879 C   0  0  0  0  0  0  0  0  0  0  0  0
    6.8534    5.3699  -16.1088 N   0  0  0  0  0  0  0  0  0  0  0  0
    7.1914    5.7574  -17.4959 C   0  0  0  0  0  0  0  0  0  0  0  0
    5.8893    4.2456  -16.0109 C   0  0  0  0  0  0  0  0  0  0  0  0
    7.7144    4.5430  -18.2927 C   0  0  0  0  0  0  0  0  0  0  0  0
    6.3935    3.0224  -16.8064 C   0  0  0  0  0  0  0  0  0  0  0  0
    6.7010    3.4079  -18.2461 N   0  0  0  0  0  0  0  0  0  0  0  0
    7.0962    2.2181  -19.0772 C   0  0  0  0  0  0  0  0  0  0  0  0
    7.1625    2.4729  -20.5673 C   0  0  0  0  0  0  0  0  0  0  0  0
    6.1643    2.9763  -21.3358 C   0  0  0  0  0  0  0  0  0  0  0  0
    8.4981    2.0774  -21.1838 C   0  0  0  0  0  0  0  0  0  0  0  0
    6.3092    3.2310  -22.8240 C   0  0  0  0  0  0  0  0  0  0  0  0
    4.8373    3.3217  -20.7933 C   0  0  0  0  0  0  0  0  0  0  0  0
    8.5082    1.9400  -22.7239 C   0  0  0  0  0  0  0  0  0  0  0  0
    7.7493    3.1326  -23.3306 C   0  0  0  0  0  0  0  0  0  0  0  0
    3.9701    2.3185  -20.3416 C   0  0  0  0  0  0  0  0  0  0  0  0
    4.4455    4.6646  -20.6927 C   0  0  0  0  0  0  0  0  0  0  0  0
    9.9632    1.9529  -23.2260 C   0  0  0  0  0  0  0  0  0  0  0  0
    7.8681    0.6033  -23.1508 C   0  0  0  0  0  0  0  0  0  0  0  0
    2.7407    2.6549  -19.7691 C   0  0  0  0  0  0  0  0  0  0  0  0
    3.2166    4.9996  -20.1192 C   0  0  0  0  0  0  0  0  0  0  0  0
    2.3723    3.9937  -19.6540 C   0  0  0  0  0  0  0  0  0  0  0  0
    0.8742    4.4078  -18.9223 Cl  0  0  0  0  0  0  0  0  0  0  0  0
    8.0489    8.0516   -3.3575 C   0  0  0  0  0  0  0  0  0  0  0  0
    8.4986    8.4394   -2.0559 O   0  0  0  0  0  0  0  0  0  0  0  0
    8.9266    9.8053   -2.0308 C   0  0  0  0  0  0  0  0  0  0  0  0
    5.2780   11.1454   -3.5235 H   0  0  0  0  0  0  0  0  0  0  0  0
    5.7495   10.8124   -5.2021 H   0  0  0  0  0  0  0  0  0  0  0  0
    7.9833   10.4925   -4.4813 H   0  0  0  0  0  0  0  0  0  0  0  0
    6.0114    8.7867   -3.1013 H   0  0  0  0  0  0  0  0  0  0  0  0
    6.5369    8.6502   -4.8136 H   0  0  0  0  0  0  0  0  0  0  0  0
    6.9397   10.6458   -1.6981 H   0  0  0  0  0  0  0  0  0  0  0  0
    8.1184   11.7840   -2.4281 H   0  0  0  0  0  0  0  0  0  0  0  0
    5.6228   13.2128   -4.9369 H   0  0  0  0  0  0  0  0  0  0  0  0
    6.5352   13.1957   -3.4669 H   0  0  0  0  0  0  0  0  0  0  0  0
    8.5553   12.7840   -4.4626 H   0  0  0  0  0  0  0  0  0  0  0  0
    9.0875   12.0689   -6.4537 H   0  0  0  0  0  0  0  0  0  0  0  0
    7.7811   15.1130   -4.7460 H   0  0  0  0  0  0  0  0  0  0  0  0
    7.2039   14.7559   -6.3606 H   0  0  0  0  0  0  0  0  0  0  0  0
    5.6326   13.0905   -7.0113 H   0  0  0  0  0  0  0  0  0  0  0  0
    8.0255   10.9598  -10.7955 H   0  0  0  0  0  0  0  0  0  0  0  0
    4.6490   13.0935   -9.2099 H   0  0  0  0  0  0  0  0  0  0  0  0
   11.8029   12.9921   -6.0203 H   0  0  0  0  0  0  0  0  0  0  0  0
    9.7715   15.9273   -3.5923 H   0  0  0  0  0  0  0  0  0  0  0  0
   13.2513   12.4257   -4.1042 H   0  0  0  0  0  0  0  0  0  0  0  0
   11.2229   15.3404   -1.6870 H   0  0  0  0  0  0  0  0  0  0  0  0
   12.9585   13.5856   -1.9308 H   0  0  0  0  0  0  0  0  0  0  0  0
    6.5369   11.0307  -13.4284 H   0  0  0  0  0  0  0  0  0  0  0  0
    6.4647    6.8644  -11.7927 H   0  0  0  0  0  0  0  0  0  0  0  0
    5.7685    9.7085  -14.9685 H   0  0  0  0  0  0  0  0  0  0  0  0
    6.9296    5.1386  -13.4584 H   0  0  0  0  0  0  0  0  0  0  0  0
    6.2165    8.0054  -16.6095 H   0  0  0  0  0  0  0  0  0  0  0  0
    7.9746    6.5248  -17.4995 H   0  0  0  0  0  0  0  0  0  0  0  0
    6.3058    6.1603  -18.0032 H   0  0  0  0  0  0  0  0  0  0  0  0
    4.9154    4.5638  -16.4056 H   0  0  0  0  0  0  0  0  0  0  0  0
    5.7374    3.9235  -14.9747 H   0  0  0  0  0  0  0  0  0  0  0  0
    7.8659    4.8191  -19.3405 H   0  0  0  0  0  0  0  0  0  0  0  0
    8.6492    4.1597  -17.8694 H   0  0  0  0  0  0  0  0  0  0  0  0
    7.3182    2.6220  -16.3761 H   0  0  0  0  0  0  0  0  0  0  0  0
    5.6263    2.2420  -16.8317 H   0  0  0  0  0  0  0  0  0  0  0  0
    5.8257    3.7657  -18.6403 H   0  0  0  0  0  0  0  0  0  0  0  0
    6.3736    1.4191  -18.8765 H   0  0  0  0  0  0  0  0  0  0  0  0
    8.0640    1.8839  -18.6853 H   0  0  0  0  0  0  0  0  0  0  0  0
    8.8305    1.1256  -20.7479 H   0  0  0  0  0  0  0  0  0  0  0  0
    9.2315    2.8345  -20.8736 H   0  0  0  0  0  0  0  0  0  0  0  0
    5.9309    4.2271  -23.0856 H   0  0  0  0  0  0  0  0  0  0  0  0
    5.6835    2.5092  -23.3653 H   0  0  0  0  0  0  0  0  0  0  0  0
    8.2735    4.0651  -23.0770 H   0  0  0  0  0  0  0  0  0  0  0  0
    7.7429    3.0722  -24.4265 H   0  0  0  0  0  0  0  0  0  0  0  0
    4.2308    1.2672  -20.4530 H   0  0  0  0  0  0  0  0  0  0  0  0
    5.0854    5.4606  -21.0698 H   0  0  0  0  0  0  0  0  0  0  0  0
   10.4681    2.8887  -22.9599 H   0  0  0  0  0  0  0  0  0  0  0  0
   10.5396    1.1287  -22.7906 H   0  0  0  0  0  0  0  0  0  0  0  0
   10.0052    1.8520  -24.3164 H   0  0  0  0  0  0  0  0  0  0  0  0
    8.4542   -0.2462  -22.7807 H   0  0  0  0  0  0  0  0  0  0  0  0
    6.8508    0.4843  -22.7653 H   0  0  0  0  0  0  0  0  0  0  0  0
    7.8216    0.5215  -24.2426 H   0  0  0  0  0  0  0  0  0  0  0  0
    2.0658    1.8700  -19.4337 H   0  0  0  0  0  0  0  0  0  0  0  0
    2.9127    6.0424  -20.0548 H   0  0  0  0  0  0  0  0  0  0  0  0
    7.7550    6.9984   -3.3117 H   0  0  0  0  0  0  0  0  0  0  0  0
    8.8802    8.1340   -4.0666 H   0  0  0  0  0  0  0  0  0  0  0  0
    9.2756   10.0257   -1.0170 H   0  0  0  0  0  0  0  0  0  0  0  0
    9.7763    9.9331   -2.7120 H   0  0  0  0  0  0  0  0  0  0  0  0
  1  2  1  0
  2  3  1  0
  2  4  1  0
  5  1  1  0
  6  5  1  0
  7  6  1  0
  6  8  1  0
  9  7  1  0
  8 10  1  0
 11  9  2  0
  9 12  1  0
 10 13  1  0
 14 11  1  0
 11 15  1  0
 12 16  2  0
 13 17  2  0
 18 13  1  0
 19 14  2  0
 15 20  2  0
 15 21  2  0
 15 22  1  0
 16 19  1  0
 17 23  1  0
 24 18  2  0
 25 19  1  0
 22 26  1  0
 22 27  1  0
 22 28  1  0
 23 29  2  0
 29 24  1  0
 30 25  1  0
 25 31  2  0
 25 32  2  0
 33 30  1  0
 34 33  1  0
 33 35  2  0
 36 34  1  0
 34 37  2  0
 38 36  2  0
 37 39  1  0
 40 38  1  0
 39 40  2  0
 41 40  1  0
 42 41  1  0
 41 43  1  0
 44 42  1  0
 43 45  1  0
 46 44  1  0
 46 45  1  0
 47 46  1  0
 48 47  1  0
 49 48  2  0
 48 50  1  0
 51 49  1  0
 49 52  1  0
 50 53  1  0
 54 51  1  0
 52 55  1  0
 56 52  2  0
 57 53  1  0
 53 54  1  0
 53 58  1  0
 55 59  2  0
 60 56  1  0
 59 61  1  0
 61 60  2  0
 61 62  1  0
  3 63  1  0
 63 64  1  0
 64 65  1  0
 65  4  1  0
  1 66  1  0
  1 67  1  0
  2 68  1  0
  3 69  1  0
  3 70  1  0
  4 71  1  0
  4 72  1  0
  5 73  1  0
  5 74  1  0
  6 75  1  1
  7 76  1  0
  8 77  1  0
  8 78  1  0
 12 79  1  0
 14 80  1  0
 16 81  1  0
 17 82  1  0
 18 83  1  0
 23 84  1  0
 24 85  1  0
 29 86  1  0
 30 87  1  0
 36 88  1  0
 37 89  1  0
 38 90  1  0
 39 91  1  0
 42 92  1  0
 42 93  1  0
 43 94  1  0
 43 95  1  0
 44 96  1  0
 44 97  1  0
 45 98  1  0
 45 99  1  0
 46100  1  0
 47101  1  0
 47102  1  0
 50103  1  0
 50104  1  0
 51105  1  0
 51106  1  0
 54107  1  0
 54108  1  0
 55109  1  0
 56110  1  0
 57111  1  0
 57112  1  0
 57113  1  0
 58114  1  0
 58115  1  0
 58116  1  0
 59117  1  0
 60118  1  0
 63119  1  0
 63120  1  0
 65121  1  0
 65122  1  0
M  CHG  2   2   1  46   1
M  END
>  <pka_props_0>  (1) 
{'name': 'amine3', 'atom': 1, 'pKa': 10.0}

>  <pka_props_1>  (1) 
{'name': 'amine3', 'atom': 45, 'pKa': 10.0}

>  <pka_props_2>  (1) 
{'name': 'aniline', 'atom': 6, 'pKa': 4.6}

>  <pka_props_3>  (1) 
{'name': 'aniline', 'atom': 40, 'pKa': 4.6}

>  <ScrubInfo>  (1) 
{"isomerGroup": 0, "isomerId": 0, "confId": 0, "nr_conformers:": 1, "nr_isomers:": 1}

$$$$
