
     RDKit          3D

122128  0  0  0  0  0  0  0  0999 V2000
    0.7569    1.3899   -3.3770 C   0  0  0  0  0  0  0  0  0  0  0  0
    1.1634    0.1954   -4.2012 N   0  0  0  0  0  0  0  0  0  0  0  0
    2.4557   -0.4200   -3.6589 C   0  0  0  0  0  0  0  0  0  0  0  0
    1.3176    0.4811   -5.6889 C   0  0  0  0  0  0  0  0  0  0  0  0
   -0.6353    1.9364   -3.7026 C   0  0  0  0  0  0  0  0  0  0  0  0
   -1.8465    1.0282   -3.3787 C   0  0  1  0  0  0  0  0  0  0  0  0
   -1.8444   -0.0887   -4.3673 N   0  0  0  0  0  0  0  0  0  0  0  0
   -1.8781    0.4972   -1.9240 C   0  0  0  0  0  0  0  0  0  0  0  0
   -2.9610   -0.9588   -4.3167 C   0  0  0  0  0  0  0  0  0  0  0  0
   -1.8135    1.7866   -0.6310 S   0  0  0  0  0  0  0  0  0  0  0  0
   -2.8371   -2.3441   -4.1085 C   0  0  0  0  0  0  0  0  0  0  0  0
   -4.2467   -0.4429   -4.5693 C   0  0  0  0  0  0  0  0  0  0  0  0
   -3.3166    2.6846   -0.9827 C   0  0  0  0  0  0  0  0  0  0  0  0
   -3.9551   -3.1936   -4.2138 C   0  0  0  0  0  0  0  0  0  0  0  0
   -1.2869   -3.1306   -3.6795 S   0  0  0  0  0  0  0  0  0  0  0  0
   -5.3672   -1.2751   -4.6290 C   0  0  0  0  0  0  0  0  0  0  0  0
   -4.5571    2.0449   -1.0880 C   0  0  0  0  0  0  0  0  0  0  0  0
   -3.2447    4.0711   -1.1567 C   0  0  0  0  0  0  0  0  0  0  0  0
   -5.2155   -2.6488   -4.4574 C   0  0  0  0  0  0  0  0  0  0  0  0
   -1.1606   -4.2721   -4.5694 O   0  0  0  0  0  0  0  0  0  0  0  0
   -0.2253   -2.1246   -3.6770 O   0  0  0  0  0  0  0  0  0  0  0  0
   -1.6096   -3.6703   -1.9658 C   0  0  0  0  0  0  0  0  0  0  0  0
   -5.7041    2.7791   -1.4010 C   0  0  0  0  0  0  0  0  0  0  0  0
   -4.3929    4.8038   -1.4657 C   0  0  0  0  0  0  0  0  0  0  0  0
   -6.6209   -3.7192   -4.6277 S   0  0  0  0  0  0  0  0  0  0  0  0
   -1.8033   -2.6067   -1.1327 F   0  0  0  0  0  0  0  0  0  0  0  0
   -0.5738   -4.3833   -1.4452 F   0  0  0  0  0  0  0  0  0  0  0  0
   -2.7216   -4.4509   -1.8550 F   0  0  0  0  0  0  0  0  0  0  0  0
   -5.6202    4.1568   -1.5940 C   0  0  0  0  0  0  0  0  0  0  0  0
   -6.8308   -4.4025   -3.1268 N   0  0  0  0  0  0  0  0  0  0  0  0
   -6.2055   -4.8071   -5.4863 O   0  0  0  0  0  0  0  0  0  0  0  0
   -7.7863   -2.9217   -4.9296 O   0  0  0  0  0  0  0  0  0  0  0  0
   -7.0009   -3.6919   -1.9358 C   0  0  0  0  0  0  0  0  0  0  0  0
   -7.4934   -4.4809   -0.7666 C   0  0  0  0  0  0  0  0  0  0  0  0
   -6.7313   -2.5055   -1.8281 O   0  0  0  0  0  0  0  0  0  0  0  0
   -8.0658   -5.7491   -0.8843 C   0  0  0  0  0  0  0  0  0  0  0  0
   -7.4085   -3.9070    0.5058 C   0  0  0  0  0  0  0  0  0  0  0  0
   -8.5283   -6.4254    0.2565 C   0  0  0  0  0  0  0  0  0  0  0  0
   -7.8843   -4.5896    1.6368 C   0  0  0  0  0  0  0  0  0  0  0  0
   -8.4479   -5.8694    1.5440 C   0  0  0  0  0  0  0  0  0  0  0  0
   -8.9475   -6.5513    2.6395 N   0  0  0  0  0  0  0  0  0  0  0  0
   -9.4510   -5.8614    3.8372 C   0  0  0  0  0  0  0  0  0  0  0  0
   -8.6793   -7.9927    2.8036 C   0  0  0  0  0  0  0  0  0  0  0  0
   -8.4972   -6.0702    5.0310 C   0  0  0  0  0  0  0  0  0  0  0  0
   -7.7149   -8.2208    3.9914 C   0  0  0  0  0  0  0  0  0  0  0  0
   -8.2108   -7.5537    5.2743 N   0  0  0  0  0  0  0  0  0  0  0  0
   -9.3572   -8.2766    5.9458 C   0  0  0  0  0  0  0  0  0  0  0  0
   -8.9459   -9.5828    6.5877 C   0  0  0  0  0  0  0  0  0  0  0  0
   -9.2617  -10.8159    6.1215 C   0  0  0  0  0  0  0  0  0  0  0  0
   -8.1929   -9.4238    7.9023 C   0  0  0  0  0  0  0  0  0  0  0  0
   -8.8627  -12.1011    6.8239 C   0  0  0  0  0  0  0  0  0  0  0  0
  -10.0342  -11.0348    4.8836 C   0  0  0  0  0  0  0  0  0  0  0  0
   -7.4414  -10.6815    8.3944 C   0  0  0  0  0  0  0  0  0  0  0  0
   -8.3746  -11.8970    8.2590 C   0  0  0  0  0  0  0  0  0  0  0  0
  -11.4053  -10.7456    4.8409 C   0  0  0  0  0  0  0  0  0  0  0  0
   -9.4080  -11.5633    3.7456 C   0  0  0  0  0  0  0  0  0  0  0  0
   -7.0544  -10.4946    9.8729 C   0  0  0  0  0  0  0  0  0  0  0  0
   -6.1441  -10.8851    7.5855 C   0  0  0  0  0  0  0  0  0  0  0  0
  -12.1322  -10.9462    3.6640 C   0  0  0  0  0  0  0  0  0  0  0  0
  -10.1372  -11.7662    2.5703 C   0  0  0  0  0  0  0  0  0  0  0  0
  -11.4941  -11.4492    2.5319 C   0  0  0  0  0  0  0  0  0  0  0  0
  -12.3851  -11.6819    1.0808 Cl  0  0  0  0  0  0  0  0  0  0  0  0
    2.8966   -1.6134   -4.5129 C   0  0  0  0  0  0  0  0  0  0  0  0
    3.0402   -1.2370   -5.8848 O   0  0  0  0  0  0  0  0  0  0  0  0
    1.7988   -0.7738   -6.4249 C   0  0  0  0  0  0  0  0  0  0  0  0
    1.5114    2.1660   -3.5537 H   0  0  0  0  0  0  0  0  0  0  0  0
    0.8239    1.0941   -2.3253 H   0  0  0  0  0  0  0  0  0  0  0  0
    0.4270   -0.5416   -4.1025 H   0  0  0  0  0  0  0  0  0  0  0  0
    3.2095    0.3734   -3.6917 H   0  0  0  0  0  0  0  0  0  0  0  0
    2.2672   -0.7221   -2.6242 H   0  0  0  0  0  0  0  0  0  0  0  0
    2.0455    1.2938   -5.7797 H   0  0  0  0  0  0  0  0  0  0  0  0
    0.3464    0.7947   -6.0744 H   0  0  0  0  0  0  0  0  0  0  0  0
   -0.7507    2.8737   -3.1438 H   0  0  0  0  0  0  0  0  0  0  0  0
   -0.6804    2.2374   -4.7560 H   0  0  0  0  0  0  0  0  0  0  0  0
   -2.7417    1.6363   -3.5552 H   0  0  0  0  0  0  0  0  0  0  0  0
   -1.9141    0.3387   -5.3010 H   0  0  0  0  0  0  0  0  0  0  0  0
   -2.7709   -0.1135   -1.7537 H   0  0  0  0  0  0  0  0  0  0  0  0
   -1.0270   -0.1710   -1.7517 H   0  0  0  0  0  0  0  0  0  0  0  0
   -4.3993    0.6207   -4.7506 H   0  0  0  0  0  0  0  0  0  0  0  0
   -3.8494   -4.2738   -4.1171 H   0  0  0  0  0  0  0  0  0  0  0  0
   -6.3473   -0.8440   -4.8308 H   0  0  0  0  0  0  0  0  0  0  0  0
   -4.6568    0.9765   -0.9173 H   0  0  0  0  0  0  0  0  0  0  0  0
   -2.2993    4.5984   -1.0519 H   0  0  0  0  0  0  0  0  0  0  0  0
   -6.6673    2.2791   -1.4837 H   0  0  0  0  0  0  0  0  0  0  0  0
   -4.3326    5.8823   -1.5996 H   0  0  0  0  0  0  0  0  0  0  0  0
   -6.5146    4.7307   -1.8297 H   0  0  0  0  0  0  0  0  0  0  0  0
   -6.8048   -5.4158   -3.1678 H   0  0  0  0  0  0  0  0  0  0  0  0
   -8.2216   -6.2240   -1.8491 H   0  0  0  0  0  0  0  0  0  0  0  0
   -6.9917   -2.9073    0.6302 H   0  0  0  0  0  0  0  0  0  0  0  0
   -9.0273   -7.3815    0.1058 H   0  0  0  0  0  0  0  0  0  0  0  0
   -7.7893   -4.0842    2.5934 H   0  0  0  0  0  0  0  0  0  0  0  0
  -10.4356   -6.2789    4.0841 H   0  0  0  0  0  0  0  0  0  0  0  0
   -9.6190   -4.7919    3.6691 H   0  0  0  0  0  0  0  0  0  0  0  0
   -9.6297   -8.5071    2.9779 H   0  0  0  0  0  0  0  0  0  0  0  0
   -8.2294   -8.4456    1.9139 H   0  0  0  0  0  0  0  0  0  0  0  0
   -7.5234   -5.6059    4.8378 H   0  0  0  0  0  0  0  0  0  0  0  0
   -8.9062   -5.6527    5.9563 H   0  0  0  0  0  0  0  0  0  0  0  0
   -7.5508   -9.2809    4.1958 H   0  0  0  0  0  0  0  0  0  0  0  0
   -6.7414   -7.7628    3.7798 H   0  0  0  0  0  0  0  0  0  0  0  0
   -7.4289   -7.5888    5.9349 H   0  0  0  0  0  0  0  0  0  0  0  0
   -9.7375   -7.6100    6.7303 H   0  0  0  0  0  0  0  0  0  0  0  0
  -10.1571   -8.3780    5.2096 H   0  0  0  0  0  0  0  0  0  0  0  0
   -8.9289   -9.1147    8.6576 H   0  0  0  0  0  0  0  0  0  0  0  0
   -7.4734   -8.5996    7.8221 H   0  0  0  0  0  0  0  0  0  0  0  0
   -8.0744  -12.5959    6.2435 H   0  0  0  0  0  0  0  0  0  0  0  0
   -9.7138  -12.7943    6.8516 H   0  0  0  0  0  0  0  0  0  0  0  0
   -7.8736  -12.8104    8.6039 H   0  0  0  0  0  0  0  0  0  0  0  0
   -9.2491  -11.7591    8.9095 H   0  0  0  0  0  0  0  0  0  0  0  0
  -11.9266  -10.3869    5.7268 H   0  0  0  0  0  0  0  0  0  0  0  0
   -8.3568  -11.8426    3.7698 H   0  0  0  0  0  0  0  0  0  0  0  0
   -6.4066   -9.6196   10.0032 H   0  0  0  0  0  0  0  0  0  0  0  0
   -7.9398  -10.3487   10.5023 H   0  0  0  0  0  0  0  0  0  0  0  0
   -6.5172  -11.3697   10.2552 H   0  0  0  0  0  0  0  0  0  0  0  0
   -6.3290  -10.9850    6.5111 H   0  0  0  0  0  0  0  0  0  0  0  0
   -5.4629  -10.0357    7.7172 H   0  0  0  0  0  0  0  0  0  0  0  0
   -5.6175  -11.7881    7.9158 H   0  0  0  0  0  0  0  0  0  0  0  0
  -13.1983  -10.7279    3.6430 H   0  0  0  0  0  0  0  0  0  0  0  0
   -9.6482  -12.1868    1.6943 H   0  0  0  0  0  0  0  0  0  0  0  0
    3.8708   -1.9704   -4.1631 H   0  0  0  0  0  0  0  0  0  0  0  0
    2.1987   -2.4531   -4.4370 H   0  0  0  0  0  0  0  0  0  0  0  0
    1.0531   -1.5764   -6.3767 H   0  0  0  0  0  0  0  0  0  0  0  0
    1.9648   -0.5372   -7.4807 H   0  0  0  0  0  0  0  0  0  0  0  0
  1  2  1  0
  2  3  1  0
  2  4  1  0
  5  1  1  0
  6  5  1  0
  7  6  1  0
  6  8  1  0
  9  7  1  0
  8 10  1  0
 11  9  2  0
  9 12  1  0
 10 13  1  0
 14 11  1  0
 11 15  1  0
 12 16  2  0
 13 17  2  0
 18 13  1  0
 19 14  2  0
 15 20  2  0
 15 21  2  0
 15 22  1  0
 16 19  1  0
 17 23  1  0
 24 18  2  0
 25 19  1  0
 22 26  1  0
 22 27  1  0
 22 28  1  0
 23 29  2  0
 29 24  1  0
 30 25  1  0
 25 31  2  0
 25 32  2  0
 33 30  1  0
 34 33  1  0
 33 35  2  0
 36 34  1  0
 34 37  2  0
 38 36  2  0
 37 39  1  0
 40 38  1  0
 39 40  2  0
 41 40  1  0
 42 41  1  0
 41 43  1  0
 44 42  1  0
 43 45  1  0
 46 44  1  0
 46 45  1  0
 47 46  1  0
 48 47  1  0
 49 48  2  0
 48 50  1  0
 51 49  1  0
 49 52  1  0
 50 53  1  0
 54 51  1  0
 52 55  1  0
 56 52  2  0
 57 53  1  0
 53 54  1  0
 53 58  1  0
 55 59  2  0
 60 56  1  0
 59 61  1  0
 61 60  2  0
 61 62  1  0
  3 63  1  0
 63 64  1  0
 64 65  1  0
 65  4  1  0
  1 66  1  0
  1 67  1  0
  2 68  1  0
  3 69  1  0
  3 70  1  0
  4 71  1  0
  4 72  1  0
  5 73  1  0
  5 74  1  0
  6 75  1  6
  7 76  1  0
  8 77  1  0
  8 78  1  0
 12 79  1  0
 14 80  1  0
 16 81  1  0
 17 82  1  0
 18 83  1  0
 23 84  1  0
 24 85  1  0
 29 86  1  0
 30 87  1  0
 36 88  1  0
 37 89  1  0
 38 90  1  0
 39 91  1  0
 42 92  1  0
 42 93  1  0
 43 94  1  0
 43 95  1  0
 44 96  1  0
 44 97  1  0
 45 98  1  0
 45 99  1  0
 46100  1  0
 47101  1  0
 47102  1  0
 50103  1  0
 50104  1  0
 51105  1  0
 51106  1  0
 54107  1  0
 54108  1  0
 55109  1  0
 56110  1  0
 57111  1  0
 57112  1  0
 57113  1  0
 58114  1  0
 58115  1  0
 58116  1  0
 59117  1  0
 60118  1  0
 63119  1  0
 63120  1  0
 65121  1  0
 65122  1  0
M  CHG  2   2   1  46   1
M  END
>  <pka_props_0>  (1) 
{'name': 'amine3', 'atom': 1, 'pKa': 10.0}

>  <pka_props_1>  (1) 
{'name': 'amine3', 'atom': 45, 'pKa': 10.0}

>  <pka_props_2>  (1) 
{'name': 'aniline', 'atom': 6, 'pKa': 4.6}

>  <pka_props_3>  (1) 
{'name': 'aniline', 'atom': 40, 'pKa': 4.6}

>  <ScrubInfo>  (1) 
{"isomerGroup": 0, "isomerId": 0, "confId": 0, "nr_conformers:": 1, "nr_isomers:": 1}

$$$$
