
     RDKit          3D

122128  0  0  0  0  0  0  0  0999 V2000
   -1.3266   -0.8709    0.5208 C   0  0  0  0  0  0  0  0  0  0  0  0
   -0.9339   -2.2759    0.9212 N   0  0  0  0  0  0  0  0  0  0  0  0
    0.5436   -2.5527    0.6384 C   0  0  0  0  0  0  0  0  0  0  0  0
   -1.7881   -3.3605    0.2625 C   0  0  0  0  0  0  0  0  0  0  0  0
   -2.6812   -0.4804    1.1192 C   0  0  0  0  0  0  0  0  0  0  0  0
   -2.6366    0.7142    2.1086 C   0  0  1  0  0  0  0  0  0  0  0  0
   -3.9684    1.3981    2.1635 N   0  0  0  0  0  0  0  0  0  0  0  0
   -2.3245    0.2501    3.5637 C   0  0  0  0  0  0  0  0  0  0  0  0
   -4.4429    1.9672    0.9676 C   0  0  0  0  0  0  0  0  0  0  0  0
   -0.7059   -0.5794    3.7609 S   0  0  0  0  0  0  0  0  0  0  0  0
   -5.6532    1.5438    0.3902 C   0  0  0  0  0  0  0  0  0  0  0  0
   -3.7351    3.0045    0.3416 C   0  0  0  0  0  0  0  0  0  0  0  0
   -0.8772   -1.3439    5.3684 C   0  0  0  0  0  0  0  0  0  0  0  0
   -6.1353    2.1255   -0.7919 C   0  0  0  0  0  0  0  0  0  0  0  0
   -6.5871    0.1982    1.1137 S   0  0  0  0  0  0  0  0  0  0  0  0
   -4.1911    3.5707   -0.8533 C   0  0  0  0  0  0  0  0  0  0  0  0
   -0.2531   -2.5821    5.5743 C   0  0  0  0  0  0  0  0  0  0  0  0
   -1.5682   -0.7510    6.4304 C   0  0  0  0  0  0  0  0  0  0  0  0
   -5.3783    3.1124   -1.4262 C   0  0  0  0  0  0  0  0  0  0  0  0
   -7.8658    0.1797    0.4109 O   0  0  0  0  0  0  0  0  0  0  0  0
   -5.7344   -0.9814    1.0033 O   0  0  0  0  0  0  0  0  0  0  0  0
   -6.8359    0.6974    2.8532 C   0  0  0  0  0  0  0  0  0  0  0  0
   -0.3427   -3.2280    6.8100 C   0  0  0  0  0  0  0  0  0  0  0  0
   -1.6563   -1.3974    7.6668 C   0  0  0  0  0  0  0  0  0  0  0  0
   -5.9493    3.8106   -2.9653 S   0  0  0  0  0  0  0  0  0  0  0  0
   -6.8483    2.0518    3.0184 F   0  0  0  0  0  0  0  0  0  0  0  0
   -5.8793    0.2068    3.6964 F   0  0  0  0  0  0  0  0  0  0  0  0
   -8.0270    0.2440    3.3412 F   0  0  0  0  0  0  0  0  0  0  0  0
   -1.0475   -2.6365    7.8545 C   0  0  0  0  0  0  0  0  0  0  0  0
   -5.4193    2.6663   -4.0867 N   0  0  0  0  0  0  0  0  0  0  0  0
   -7.3915    3.8350   -2.9209 O   0  0  0  0  0  0  0  0  0  0  0  0
   -5.1709    5.0029   -3.2110 O   0  0  0  0  0  0  0  0  0  0  0  0
   -5.7705    1.3081   -3.9884 C   0  0  0  0  0  0  0  0  0  0  0  0
   -7.2013    0.9444   -4.1586 C   0  0  0  0  0  0  0  0  0  0  0  0
   -4.9081    0.4699   -3.7788 O   0  0  0  0  0  0  0  0  0  0  0  0
   -8.0795    1.7200   -4.9180 C   0  0  0  0  0  0  0  0  0  0  0  0
   -7.6796   -0.2098   -3.5375 C   0  0  0  0  0  0  0  0  0  0  0  0
   -9.4310    1.3620   -5.0252 C   0  0  0  0  0  0  0  0  0  0  0  0
   -9.0317   -0.5564   -3.6486 C   0  0  0  0  0  0  0  0  0  0  0  0
   -9.9389    0.2198   -4.3918 C   0  0  0  0  0  0  0  0  0  0  0  0
  -11.2928   -0.1566   -4.4315 N   0  0  0  0  0  0  0  0  0  0  0  0
  -11.5243   -1.4610   -5.0874 C   0  0  0  0  0  0  0  0  0  0  0  0
  -12.2762    0.8702   -4.8335 C   0  0  0  0  0  0  0  0  0  0  0  0
  -12.9431   -1.9862   -4.7861 C   0  0  0  0  0  0  0  0  0  0  0  0
  -13.6958    0.4100   -4.4542 C   0  0  0  0  0  0  0  0  0  0  0  0
  -14.0424   -0.9621   -5.0163 N   0  0  0  0  0  0  0  0  0  0  0  0
  -14.7438   -0.9802   -6.3516 C   0  0  0  0  0  0  0  0  0  0  0  0
  -14.0075   -0.5073   -7.5835 C   0  0  0  0  0  0  0  0  0  0  0  0
  -14.1009    0.7350   -8.1254 C   0  0  0  0  0  0  0  0  0  0  0  0
  -13.2906   -1.6165   -8.3475 C   0  0  0  0  0  0  0  0  0  0  0  0
  -13.4385    1.1254   -9.4360 C   0  0  0  0  0  0  0  0  0  0  0  0
  -14.8991    1.8336   -7.5424 C   0  0  0  0  0  0  0  0  0  0  0  0
  -12.3277   -1.1628   -9.4711 C   0  0  0  0  0  0  0  0  0  0  0  0
  -13.0179   -0.0653  -10.2952 C   0  0  0  0  0  0  0  0  0  0  0  0
  -14.2660    2.9873   -7.0580 C   0  0  0  0  0  0  0  0  0  0  0  0
  -16.3000    1.7680   -7.5231 C   0  0  0  0  0  0  0  0  0  0  0  0
  -12.0131   -2.3618  -10.3847 C   0  0  0  0  0  0  0  0  0  0  0  0
  -10.9974   -0.6508   -8.8861 C   0  0  0  0  0  0  0  0  0  0  0  0
  -15.0175    4.0334   -6.5147 C   0  0  0  0  0  0  0  0  0  0  0  0
  -17.0515    2.8129   -6.9775 C   0  0  0  0  0  0  0  0  0  0  0  0
  -16.4070    3.9375   -6.4677 C   0  0  0  0  0  0  0  0  0  0  0  0
  -17.3299    5.2163   -5.7856 Cl  0  0  0  0  0  0  0  0  0  0  0  0
    0.8953   -3.9735    1.0925 C   0  0  0  0  0  0  0  0  0  0  0  0
    0.0658   -4.9409    0.4416 O   0  0  0  0  0  0  0  0  0  0  0  0
   -1.3202   -4.7405    0.7375 C   0  0  0  0  0  0  0  0  0  0  0  0
   -0.5245   -0.1982    0.8415 H   0  0  0  0  0  0  0  0  0  0  0  0
   -1.3602   -0.8537   -0.5754 H   0  0  0  0  0  0  0  0  0  0  0  0
   -1.0508   -2.3506    1.9439 H   0  0  0  0  0  0  0  0  0  0  0  0
    0.6831   -2.4331   -0.4412 H   0  0  0  0  0  0  0  0  0  0  0  0
    1.1316   -1.8089    1.1843 H   0  0  0  0  0  0  0  0  0  0  0  0
   -2.8320   -3.1900    0.5353 H   0  0  0  0  0  0  0  0  0  0  0  0
   -1.6559   -3.2477   -0.8189 H   0  0  0  0  0  0  0  0  0  0  0  0
   -3.3094   -0.2293    0.2584 H   0  0  0  0  0  0  0  0  0  0  0  0
   -3.1753   -1.3255    1.6109 H   0  0  0  0  0  0  0  0  0  0  0  0
   -1.8787    1.4431    1.7963 H   0  0  0  0  0  0  0  0  0  0  0  0
   -3.8964    2.1670    2.8457 H   0  0  0  0  0  0  0  0  0  0  0  0
   -3.1155   -0.4324    3.8986 H   0  0  0  0  0  0  0  0  0  0  0  0
   -2.3418    1.1229    4.2264 H   0  0  0  0  0  0  0  0  0  0  0  0
   -2.8176    3.3949    0.7791 H   0  0  0  0  0  0  0  0  0  0  0  0
   -7.0815    1.8033   -1.2230 H   0  0  0  0  0  0  0  0  0  0  0  0
   -3.6175    4.3714   -1.3195 H   0  0  0  0  0  0  0  0  0  0  0  0
    0.3261   -3.0570    4.7868 H   0  0  0  0  0  0  0  0  0  0  0  0
   -2.0304    0.2266    6.3344 H   0  0  0  0  0  0  0  0  0  0  0  0
    0.1504   -4.1856    6.9653 H   0  0  0  0  0  0  0  0  0  0  0  0
   -2.1844   -0.9256    8.4921 H   0  0  0  0  0  0  0  0  0  0  0  0
   -1.1007   -3.1266    8.8236 H   0  0  0  0  0  0  0  0  0  0  0  0
   -4.4191    2.8097   -4.2177 H   0  0  0  0  0  0  0  0  0  0  0  0
   -7.7352    2.6185   -5.4276 H   0  0  0  0  0  0  0  0  0  0  0  0
   -7.0187   -0.8341   -2.9404 H   0  0  0  0  0  0  0  0  0  0  0  0
  -10.0662    2.0096   -5.6224 H   0  0  0  0  0  0  0  0  0  0  0  0
   -9.3808   -1.4315   -3.1043 H   0  0  0  0  0  0  0  0  0  0  0  0
  -11.3808   -1.3524   -6.1645 H   0  0  0  0  0  0  0  0  0  0  0  0
  -10.8137   -2.2226   -4.7455 H   0  0  0  0  0  0  0  0  0  0  0  0
  -12.2109    1.0549   -5.9107 H   0  0  0  0  0  0  0  0  0  0  0  0
  -12.0835    1.8136   -4.3076 H   0  0  0  0  0  0  0  0  0  0  0  0
  -13.0130   -2.2493   -3.7240 H   0  0  0  0  0  0  0  0  0  0  0  0
  -13.1816   -2.8802   -5.3708 H   0  0  0  0  0  0  0  0  0  0  0  0
  -14.4709    1.1145   -4.7664 H   0  0  0  0  0  0  0  0  0  0  0  0
  -13.7651    0.3007   -3.3646 H   0  0  0  0  0  0  0  0  0  0  0  0
  -14.7886   -1.2800   -4.3860 H   0  0  0  0  0  0  0  0  0  0  0  0
  -15.6679   -0.4181   -6.1916 H   0  0  0  0  0  0  0  0  0  0  0  0
  -15.0797   -2.0147   -6.4993 H   0  0  0  0  0  0  0  0  0  0  0  0
  -14.0757   -2.2500   -8.7853 H   0  0  0  0  0  0  0  0  0  0  0  0
  -12.7453   -2.2625   -7.6537 H   0  0  0  0  0  0  0  0  0  0  0  0
  -12.5609    1.7487   -9.2209 H   0  0  0  0  0  0  0  0  0  0  0  0
  -14.1214    1.7430  -10.0356 H   0  0  0  0  0  0  0  0  0  0  0  0
  -13.9110   -0.4798  -10.7831 H   0  0  0  0  0  0  0  0  0  0  0  0
  -12.3621    0.2856  -11.1022 H   0  0  0  0  0  0  0  0  0  0  0  0
  -13.1851    3.0959   -7.1166 H   0  0  0  0  0  0  0  0  0  0  0  0
  -16.8242    0.9174   -7.9561 H   0  0  0  0  0  0  0  0  0  0  0  0
  -12.9210   -2.7520  -10.8572 H   0  0  0  0  0  0  0  0  0  0  0  0
  -11.3203   -2.0781  -11.1848 H   0  0  0  0  0  0  0  0  0  0  0  0
  -11.5552   -3.1805   -9.8186 H   0  0  0  0  0  0  0  0  0  0  0  0
  -10.4519   -1.4582   -8.3859 H   0  0  0  0  0  0  0  0  0  0  0  0
  -10.3463   -0.2568   -9.6755 H   0  0  0  0  0  0  0  0  0  0  0  0
  -11.1436    0.1466   -8.1522 H   0  0  0  0  0  0  0  0  0  0  0  0
  -14.5187    4.9270   -6.1449 H   0  0  0  0  0  0  0  0  0  0  0  0
  -18.1374    2.7552   -6.9724 H   0  0  0  0  0  0  0  0  0  0  0  0
    1.9347   -4.1981    0.8315 H   0  0  0  0  0  0  0  0  0  0  0  0
    0.7942   -4.0791    2.1786 H   0  0  0  0  0  0  0  0  0  0  0  0
   -1.4852   -4.8699    1.8139 H   0  0  0  0  0  0  0  0  0  0  0  0
   -1.8874   -5.5188    0.2164 H   0  0  0  0  0  0  0  0  0  0  0  0
  1  2  1  0
  2  3  1  0
  2  4  1  0
  5  1  1  0
  6  5  1  0
  7  6  1  0
  6  8  1  0
  9  7  1  0
  8 10  1  0
 11  9  2  0
  9 12  1  0
 10 13  1  0
 14 11  1  0
 11 15  1  0
 12 16  2  0
 13 17  2  0
 18 13  1  0
 19 14  2  0
 15 20  2  0
 15 21  2  0
 15 22  1  0
 16 19  1  0
 17 23  1  0
 24 18  2  0
 25 19  1  0
 22 26  1  0
 22 27  1  0
 22 28  1  0
 23 29  2  0
 29 24  1  0
 30 25  1  0
 25 31  2  0
 25 32  2  0
 33 30  1  0
 34 33  1  0
 33 35  2  0
 36 34  1  0
 34 37  2  0
 38 36  2  0
 37 39  1  0
 40 38  1  0
 39 40  2  0
 41 40  1  0
 42 41  1  0
 41 43  1  0
 44 42  1  0
 43 45  1  0
 46 44  1  0
 46 45  1  0
 47 46  1  0
 48 47  1  0
 49 48  2  0
 48 50  1  0
 51 49  1  0
 49 52  1  0
 50 53  1  0
 54 51  1  0
 52 55  1  0
 56 52  2  0
 57 53  1  0
 53 54  1  0
 53 58  1  0
 55 59  2  0
 60 56  1  0
 59 61  1  0
 61 60  2  0
 61 62  1  0
  3 63  1  0
 63 64  1  0
 64 65  1  0
 65  4  1  0
  1 66  1  0
  1 67  1  0
  2 68  1  0
  3 69  1  0
  3 70  1  0
  4 71  1  0
  4 72  1  0
  5 73  1  0
  5 74  1  0
  6 75  1  6
  7 76  1  0
  8 77  1  0
  8 78  1  0
 12 79  1  0
 14 80  1  0
 16 81  1  0
 17 82  1  0
 18 83  1  0
 23 84  1  0
 24 85  1  0
 29 86  1  0
 30 87  1  0
 36 88  1  0
 37 89  1  0
 38 90  1  0
 39 91  1  0
 42 92  1  0
 42 93  1  0
 43 94  1  0
 43 95  1  0
 44 96  1  0
 44 97  1  0
 45 98  1  0
 45 99  1  0
 46100  1  0
 47101  1  0
 47102  1  0
 50103  1  0
 50104  1  0
 51105  1  0
 51106  1  0
 54107  1  0
 54108  1  0
 55109  1  0
 56110  1  0
 57111  1  0
 57112  1  0
 57113  1  0
 58114  1  0
 58115  1  0
 58116  1  0
 59117  1  0
 60118  1  0
 63119  1  0
 63120  1  0
 65121  1  0
 65122  1  0
M  CHG  2   2   1  46   1
M  END
>  <pka_props_0>  (1) 
{'name': 'amine3', 'atom': 1, 'pKa': 10.0}

>  <pka_props_1>  (1) 
{'name': 'amine3', 'atom': 45, 'pKa': 10.0}

>  <pka_props_2>  (1) 
{'name': 'aniline', 'atom': 6, 'pKa': 4.6}

>  <pka_props_3>  (1) 
{'name': 'aniline', 'atom': 40, 'pKa': 4.6}

>  <ScrubInfo>  (1) 
{"isomerGroup": 0, "isomerId": 0, "confId": 0, "nr_conformers:": 1, "nr_isomers:": 1}

$$$$
